# File generated by Flopy version 3.8.2 on 11/13/2025 at 07:02:13.
BEGIN options
  DIGITS  10
  PRINT_INPUT
END options

BEGIN continuous  FILEOUT  e11.sfr.obs.csv
  r01_H  stage  4
  r02_H  stage  15
  r03_H  stage  27
  r04_H  stage  36
  r01_F  downstream-flow  4
  r02_F  downstream-flow  15
  r03_F  downstream-flow  27
  r04_F  downstream-flow  36
END continuous  FILEOUT  e11.sfr.obs.csv

