# File generated by Flopy version 3.8.2 on 11/13/2025 at 07:02:13.
BEGIN options
END options

BEGIN griddata
  strt
    CONSTANT    1050.00000000
END griddata

