# MODFLOW-6 SFR input; created by SFRmaker v. 0.11.3

BEGIN Options
  save_flows
  BUDGET FILEOUT tf.sfr.cbc
  STAGE FILEOUT tf.sfr.stage.bin
  unit_conversion  128390.4
  auxiliary line_id
END Options

BEGIN Dimensions
  NREACHES 1439
END Dimensions

BEGIN Packagedata
#rno k i j rlen rwid rgrd rtp rbth rhk man ncon ustrf ndv line_id
1 3 111 115 208.80794 1.3061534057617499 0.0400940133671557 1325.7078 1 5.0 0.03700000047683716 1 1.0 0 1815013
2 3 111 116 294.09894 2.0435135136170346 0.0031171416433728467 1317.3358 1 1.0 0.03700000047683716 2 1.0 0 1815013
3 3 111 117 41.622536 2.535747097917121 0.2072751981514601 1316.4191 1 1.0 0.03700000047683716 2 1.0 0 1815013
4 3 110 117 220.36644 2.9198743955727267 0.028292053661784243 1307.7917 1 1.0 0.03700000047683716 2 1.0 0 1815013
5 3 110 118 162.61732 3.4814037379619713 0.015271425969587575 1301.5571 1 1.0 0.03700000047683716 2 1.0 0 1815013
6 3 111 118 135.71492 3.9188173880350052 0.031381303775837165 1299.0737 1 1.0 0.03700000047683716 2 1.0 0 1815013
7 3 111 119 250.04433 4.484415997626634 0.00011033199984988013 1294.8148 1 1.0 0.03700000047683716 2 1.0 0 1815013
8 3 111 120 268.58365 5.244826300056684 0.0017075431297238514 1294.7872 1 1.0 0.03700000047683716 2 1.0 0 1815013
9 3 111 120 72.61439 37.59457778930664 0.006315802966531981 1294.7872 1 1.0 0.03700000047683716 1 1.0 0 1815035
10 3 83 160 29.546015 1.0082211172369389 0.01317958782930652 1378.6824 1 1.0 0.03700000047683716 1 1.0 0 1815711
11 3 83 159 258.70886 1.0884274411674626 0.015121667422404018 1378.293 1 1.0 0.03700000047683716 2 1.0 0 1815711
12 3 83 158 208.73987 1.2184940793691434 0.03538661178937741 1374.3809 1 1.0 0.03700000047683716 2 1.0 0 1815711
13 3 84 158 195.19568 1.3308883061745174 0.010114799914698979 1366.9943 1 1.0 0.03700000047683716 2 1.0 0 1815711
14 3 84 157 125.48434 1.420116830991378 0.04051294657060901 1365.0199 1 1.0 0.03700000047683716 2 1.0 0 1815711
15 3 85 157 171.89035 1.5028607050941343 0.02154282030564387 1359.9362 1 1.0 0.03700000047683716 2 1.0 0 1815711
16 3 85 156 262.72375 1.6237912194876685 0.006158719804036087 1356.2332 1 1.0 0.03700000047683716 2 1.0 0 1815711
17 3 85 155 88.31678 1.7214674490579376 0.05159980811787844 1354.6151 1 1.0 0.03700000047683716 2 1.0 0 1815711
18 3 84 155 227.14778 1.8092448865027573 0.003084166260422211 1350.058 1 1.0 0.03700000047683716 2 1.0 0 1815711
19 2 84 154 245.36812 1.9407214455137034 0.0014954810019250089 1349.3574 1 1.0 0.03700000047683716 2 1.0 0 1815711
20 3 85 154 125.21224 2.0438347182933754 0.022232757989836472 1348.9905 1 1.0 0.03700000047683716 2 1.0 0 1815711
21 3 85 153 294.89835 2.1607295509024325 0.02287516936626463 1346.2067 1 1.0 0.03700000047683716 2 1.0 0 1815711
22 3 86 152 259.98416 2.3151244049355055 0.01082547917570756 1339.4608 1 1.0 0.03700000047683716 2 1.0 0 1815711
23 3 86 151 255.43497 2.458538791630124 0.01270188993121104 1336.6464 1 1.0 0.03700000047683716 2 1.0 0 1815711
24 3 86 150 250.13744 2.599213360156624 0.01250826038200313 1333.4019 1 1.0 0.03700000047683716 2 1.0 0 1815711
25 2 86 149 275.71194 2.7455297857320806 0.01009150560034729 1330.2731 1 1.0 0.03700000047683716 2 1.0 0 1815711
26 2 86 148 94.28542 2.8484807019357885 0.088423383412718 1327.4907 1 1.0 0.03700000047683716 2 1.0 0 1815711
27 3 85 148 164.77963 2.92056498371539 0.023806653172822146 1319.1537 1 1.0 0.03700000047683716 2 1.0 0 1815711
28 3 85 147 254.64177 3.037268249151133 0.011756808087725203 1315.2308 1 1.0 0.03700000047683716 2 1.0 0 1815711
29 1 85 146 221.87613 3.169858411237304 0.024705530080241393 1312.237 1 1.0 0.03700000047683716 2 1.0 0 1815711
30 1 84 146 250.62552 3.301330962282567 0.0001 1306.7555 1 1.0 0.03700000047683716 2 1.0 0 1815711
31 3 83 146 253.3421 3.4415592200542195 0.001802562761443274 1306.7555 1 1.0 0.03700000047683716 2 1.0 0 1815711
32 2 83 145 251.53546 3.5820404551852403 0.0001 1306.2988 1 1.0 0.03700000047683716 2 1.0 0 1815711
33 2 83 144 250.13594 3.721629340533052 0.003855325494700178 1306.2988 1 1.0 0.03700000047683716 2 1.0 0 1815711
34 2 83 143 261.7864 3.8640708105410746 0.021252901389647756 1305.3345 1 1.0 0.03700000047683716 2 1.0 0 1815711
35 2 83 142 250.93889 4.006735639721386 0.0001 1299.7708 1 1.0 0.03700000047683716 2 1.0 0 1815711
36 1 83 141 40.368492 4.0877913790580305 0.0001 1299.7708 1 1.0 0.03700000047683716 2 1.0 0 1815711
37 2 82 141 220.41447 4.160353763591456 0.0001 1299.7708 1 1.0 0.03700000047683716 2 1.0 0 1815711
38 2 82 140 260.78296 4.294245631413456 0.012481662511573564 1299.7708 1 1.0 0.03700000047683716 2 1.0 0 1815711
39 2 82 139 271.47202 4.4423447186066785 0.0001 1296.5157 1 1.0 0.03700000047683716 2 1.0 0 1815711
40 1 81 138 266.6726 4.592082044789844 0.0001 1296.5157 1 1.0 0.03700000047683716 2 1.0 0 1815711
41 1 81 137 70.70896 4.68595783978173 0.0001 1296.5157 1 1.0 0.03700000047683716 2 1.0 0 1815711
42 1 82 137 285.1908 4.784986384146027 0.0001 1296.5157 1 1.0 0.03700000047683716 2 1.0 0 1815711
43 1 82 136 147.38858 4.905350620540715 0.0001 1296.5157 1 1.0 0.03700000047683716 2 1.0 0 1815711
44 1 83 136 131.114 4.982843210453723 0.0001 1296.5157 1 1.0 0.03700000047683716 2 1.0 0 1815711
45 2 83 135 312.77048 5.106353224388063 0.0001 1296.5157 1 1.0 0.03700000047683716 2 1.0 0 1815711
46 1 84 134 270.87003 5.26875001587267 0.0001 1296.5157 1 1.0 0.03700000047683716 2 1.0 0 1815711
47 2 85 134 222.82242 5.406118895821938 0.0001 1296.5157 1 1.0 0.03700000047683716 2 1.0 0 1815711
48 1 85 133 226.75629 5.531213075175312 0.0001 1296.5157 1 1.0 0.03700000047683716 2 1.0 0 1815711
49 2 86 133 39.361153 5.6052596297805675 0.0001 1296.5157 1 1.0 0.03700000047683716 2 1.0 0 1815711
50 2 86 132 255.63345 5.687341680058497 0.0001 1296.5157 1 1.0 0.03700000047683716 2 1.0 0 1815711
51 1 86 131 300.53873 5.8420953489176135 0.0001 1296.5157 1 1.0 0.03700000047683716 2 1.0 0 1815711
52 1 86 130 70.25732 5.945268265661176 0.0001 1296.5157 1 1.0 0.03700000047683716 2 1.0 0 1815711
53 1 87 130 315.09625 6.05249262432546 0.0001 1296.5157 1 1.0 0.03700000047683716 2 1.0 0 1815711
54 1 87 129 21.481985 6.146144788418569 0.0001 1296.5157 1 1.0 0.03700000047683716 2 1.0 0 1815711
55 2 88 129 285.30783 6.231508207753148 0.0001 1296.5157 1 1.0 0.03700000047683716 2 1.0 0 1815711
56 1 88 128 274.46 6.387262373537288 0.0001 1296.5157 1 1.0 0.03700000047683716 2 1.0 0 1815711
57 2 88 127 272.04498 6.539326493628376 0.028393705892844925 1296.5157 1 1.0 0.03700000047683716 2 1.0 0 1815711
58 2 88 126 141.9396 6.654516785984671 0.0254968902901414 1288.7914 1 1.0 0.03700000047683716 2 1.0 0 1815711
59 2 87 126 115.01175 6.726012915783226 0.08362235834325053 1285.1724 1 1.0 0.03700000047683716 2 1.0 0 1815711
60 2 87 125 255.13408 6.829004862686467 0.004048690745300356 1275.5548 1 1.0 0.03700000047683716 2 1.0 0 1815711
61 2 87 124 202.27318 6.9562777450123665 0.0001 1274.5219 1 1.0 0.03700000047683716 2 1.0 0 1815711
62 1 88 124 67.2036 7.031259038732798 0.0001 1274.5219 1 1.0 0.03700000047683716 2 1.0 0 1815711
63 1 88 123 35.352493 7.059795210941406 0.009740765630739176 1274.5219 1 1.0 0.03700000047683716 2 1.0 0 1815711
64 1 111 121 205.67856 38.229222422371215 0.0017330212510247155 1294.3286 1 1.0 0.03700000047683716 3 1.0 0 1814967
65 1 110 121 216.20222 38.2421273611908 0.0013437759214128223 1293.9722 1 1.0 0.03700000047683716 2 1.0 0 1814967
66 1 110 122 116.506584 38.25230461133216 0.0022998214036755627 1293.6816 1 1.0 0.03700000047683716 2 1.0 0 1814967
67 1 109 122 303.07346 38.265139168610986 0.001714611789154305 1293.4137 1 1.0 0.03700000047683716 2 1.0 0 1814967
68 1 108 122 250.12155 38.28206088684078 0.0001 1292.894 1 1.0 0.03700000047683716 2 1.0 0 1814967
69 1 107 122 124.97299 38.293534682677745 0.0020502476731422683 1292.894 1 1.0 0.03700000047683716 2 1.0 0 1814967
70 1 107 123 128.55511 38.301289868711926 0.002964514608210718 1292.6378 1 1.0 0.03700000047683716 2 1.0 0 1814967
71 1 106 123 252.12965 38.31293466009382 0.00014863616934089724 1292.2567 1 1.0 0.03700000047683716 2 1.0 0 1814967
72 1 105 123 64.97041 38.32263445463301 0.007036330811824887 1292.2192 1 1.0 0.03700000047683716 2 1.0 0 1814967
73 1 105 122 196.4471 38.3306309776122 0.002117697994548388 1291.7621 1 1.0 0.03700000047683716 2 1.0 0 1814967
74 2 104 122 141.91461 38.340981148183914 0.0001 1291.3461 1 1.0 0.03700000047683716 2 1.0 0 1814967
75 1 104 123 127.45314 38.34922085271219 0.0024825300448270506 1291.3461 1 1.0 0.03700000047683716 2 1.0 0 1814967
76 1 103 123 273.69043 38.36149145776702 0.0014758669659136728 1291.0297 1 1.0 0.03700000047683716 2 1.0 0 1814967
77 1 102 122 280.6066 38.3784468941645 0.0012663518333009423 1290.6257 1 1.0 0.03700000047683716 2 1.0 0 1814967
78 1 101 122 281.51642 38.39564169594634 0.0001 1290.2704 1 1.0 0.03700000047683716 2 1.0 0 1814967
79 1 101 123 109.9565 38.407616492225586 0.0015298131071844736 1290.2704 1 1.0 0.03700000047683716 2 1.0 0 1814967
80 1 100 123 152.7077 38.41565115444782 0.00518472895082781 1290.1022 1 1.0 0.03700000047683716 2 1.0 0 1814967
81 1 100 124 233.04485 38.42745095978464 0.005560201788444274 1289.3104 1 1.0 0.03700000047683716 2 1.0 0 1814967
82 1 99 124 250.11234 38.44223028613118 0.004513596856685857 1288.0146 1 1.0 0.03700000047683716 2 1.0 0 1814967
83 1 98 124 265.30466 38.45799640844769 0.0001 1286.8857 1 1.0 0.03700000047683716 2 1.0 0 1814967
84 2 97 124 48.998734 38.46761066414023 0.03304454031087005 1286.8857 1 1.0 0.03700000047683716 2 1.0 0 1814967
85 1 97 123 277.3601 38.477593661415796 0.002798250455298851 1285.2666 1 1.0 0.03700000047683716 2 1.0 0 1814967
86 1 96 123 98.66559 38.48909592539344 0.011404626061760417 1284.4905 1 1.0 0.03700000047683716 2 1.0 0 1814967
87 2 96 122 186.094 38.497806489384 0.0001 1283.3652 1 1.0 0.03700000047683716 2 1.0 0 1814967
88 2 95 122 49.255592 38.50500558329861 0.02321674825190531 1283.3652 1 1.0 0.03700000047683716 2 1.0 0 1814967
89 1 95 123 368.82526 38.51779429059063 0.002333342655671603 1282.2217 1 1.0 0.03700000047683716 2 1.0 0 1814967
90 1 94 123 272.91226 38.537424432774785 0.0029189998780022653 1281.3611 1 1.0 0.03700000047683716 2 1.0 0 1814967
91 1 93 123 261.76273 38.55377963351134 0.004205450087036449 1280.5645 1 1.0 0.03700000047683716 2 1.0 0 1814967
92 1 92 123 256.25336 38.569625275440124 0.0029629947206770107 1279.4636 1 1.0 0.03700000047683716 2 1.0 0 1814967
93 1 91 123 250.41933 38.58512392269715 0.0029428178968126033 1278.7043 1 1.0 0.03700000047683716 2 1.0 0 1814967
94 1 90 123 251.35461 38.60047270147378 0.0049104049007890355 1277.9674 1 1.0 0.03700000047683716 2 1.0 0 1814967
95 1 89 123 258.08017 38.616055827116796 0.008568282149297881 1276.7332 1 1.0 0.03700000047683716 2 1.0 0 1814967
96 1 88 123 231.09567 38.63101925540566 0.0014901202938035478 1274.5219 1 1.0 0.03700000047683716 2 1.0 0 1814967
97 1 102 96 237.85654 1.070892088940451 0.0040753992483785455 1398.7229 1 1.0 0.03700000047683716 1 1.0 0 1814949
98 1 101 96 264.90335 1.2207374592101616 0.005024219637150701 1397.7535 1 1.0 0.03700000047683716 2 1.0 0 1814949
99 1 101 97 141.86505 1.341972955318408 0.015585653764095 1396.4226 1 1.0 0.03700000047683716 2 1.0 0 1814949
100 1 100 97 121.53572 1.4204783860570016 0.03709344611056044 1394.2115 1 1.0 0.03700000047683716 2 1.0 0 1814949
101 2 100 98 250.30739 1.5313045894284447 0.021582350070668114 1389.7034 1 1.0 0.03700000047683716 2 1.0 0 1814949
102 2 100 99 274.82327 1.687817447015544 0.011330967866090258 1384.3011 1 1.0 0.03700000047683716 2 1.0 0 1814949
103 1 100 100 199.12505 1.8290756246596735 0.013223744409805501 1381.1871 1 1.0 0.03700000047683716 2 1.0 0 1814949
104 2 99 100 135.47241 1.9288009036497655 0.029207327512412257 1378.554 1 1.0 0.03700000047683716 2 1.0 0 1814949
105 1 99 101 184.16417 2.024067214144724 0.01674849493134819 1374.5972 1 1.0 0.03700000047683716 2 1.0 0 1814949
106 1 98 101 256.28027 2.155339627930229 0.02208104225491653 1371.5127 1 1.0 0.03700000047683716 2 1.0 0 1814949
107 2 97 101 234.74832 2.3016884473263373 0.021370127503938064 1365.8538 1 1.0 0.03700000047683716 2 1.0 0 1814949
108 2 97 102 193.61409 2.429359937893143 0.017162366525851007 1360.8372 1 1.0 0.03700000047683716 2 1.0 0 1814949
109 2 96 102 158.28113 2.534240837810236 0.044827434621355675 1357.5143 1 1.0 0.03700000047683716 2 1.0 0 1814949
110 2 96 103 226.23752 2.6488450381096897 0.014461476328316304 1350.419 1 1.0 0.03700000047683716 2 1.0 0 1814949
111 2 95 103 80.643936 2.7403096666581943 0.10261791635738411 1347.1472 1 1.0 0.03700000047683716 2 1.0 0 1814949
112 2 95 104 274.68396 2.846213497417902 0.0138071496406337 1338.8717 1 1.0 0.03700000047683716 2 1.0 0 1814949
113 2 95 105 171.78038 2.9792802241674154 0.016907034847575445 1335.0791 1 1.0 0.03700000047683716 2 1.0 0 1814949
114 2 94 105 169.08075 3.080872435625068 0.027721995986598892 1332.1748 1 1.0 0.03700000047683716 2 1.0 0 1814949
115 2 94 106 174.35669 3.183232463717467 0.03345865451261263 1327.4875 1 1.0 0.03700000047683716 2 1.0 0 1814949
116 2 93 106 180.48175 3.288990327819735 0.03625415241664477 1321.6538 1 1.0 0.03700000047683716 2 1.0 0 1814949
117 2 93 107 272.0851 3.423876034879654 0.004565885851732088 1315.1106 1 1.0 0.03700000047683716 2 1.0 0 1814949
118 1 93 108 64.80082 3.5242833405298564 0.10814388714855339 1313.8683 1 1.0 0.03700000047683716 2 1.0 0 1814949
119 2 92 108 280.80725 3.62729010424106 0.01378906812069173 1306.8605 1 1.0 0.03700000047683716 2 1.0 0 1814949
120 2 92 109 130.3732 3.749840682801901 0.04015290951527234 1302.9884 1 1.0 0.03700000047683716 2 1.0 0 1814949
121 2 91 109 187.75175 3.844656432208691 0.021596653386700262 1297.7535 1 1.0 0.03700000047683716 2 1.0 0 1814949
122 2 91 110 186.12332 3.956088513632562 0.0196009469921489 1293.6987 1 1.0 0.03700000047683716 2 1.0 0 1814949
123 2 90 110 136.80522 4.052335696780704 0.021239245222915374 1290.0505 1 1.0 0.03700000047683716 2 1.0 0 1814949
124 1 90 111 238.88147 4.164307403693892 0.02506800237312058 1287.1449 1 1.0 0.03700000047683716 2 1.0 0 1814949
125 1 89 111 260.7191 4.313211440010562 0.03427597693288134 1281.1566 1 1.0 0.03700000047683716 2 1.0 0 1814949
126 1 88 111 254.08926 4.466647864741288 0.02266683497483845 1272.2202 1 1.0 0.03700000047683716 2 1.0 0 1814949
127 1 87 111 213.91228 4.606133486166461 0.016467989233148975 1266.4608 1 1.0 0.03700000047683716 2 1.0 0 1814949
128 1 87 112 168.69975 4.720169100493216 0.032474223960096624 1262.9381 1 1.0 0.03700000047683716 2 1.0 0 1814949
129 1 86 112 281.84363 4.854451730954501 0.014312239400951898 1257.4597 1 1.0 0.03700000047683716 2 1.0 0 1814949
130 1 85 112 105.6299 4.969936533690812 0.03496625020711266 1253.4259 1 1.0 0.03700000047683716 2 1.0 0 1814949
131 2 85 111 182.84175 5.055914242114249 0.014534266310386868 1249.7324 1 1.0 0.03700000047683716 2 1.0 0 1814949
132 2 84 111 145.35756 5.15373256786829 0.026702909348611133 1247.075 1 1.0 0.03700000047683716 2 1.0 0 1814949
133 2 84 112 192.12643 5.254318293380925 0.02755258077904898 1243.1935 1 1.0 0.03700000047683716 2 1.0 0 1814949
134 2 83 112 149.7303 5.356207095115608 0.01939930039820743 1237.8999 1 1.0 0.03700000047683716 2 1.0 0 1814949
135 1 83 113 180.26923 5.454561844697488 0.033081081593523146 1234.9952 1 1.0 0.03700000047683716 2 1.0 0 1814949
136 1 82 113 279.9667 5.591733246993445 0.0001 1229.0317 1 1.0 0.03700000047683716 2 1.0 0 1814949
137 2 82 112 15.889154 5.679911952153787 0.20725400045351458 1229.0317 1 1.0 0.03700000047683716 2 1.0 0 1814949
138 1 81 112 278.34708 5.767607788551032 0.02022042397896606 1225.7386 1 1.0 0.03700000047683716 2 1.0 0 1814949
139 2 80 112 253.7921 5.926209075368028 0.06309375026116008 1220.1104 1 1.0 0.03700000047683716 2 1.0 0 1814949
140 1 79 112 255.50504 6.078002756699774 0.007167846596712121 1204.0977 1 1.0 0.03700000047683716 2 1.0 0 1814949
141 1 78 112 224.77708 6.221149041436246 0.007162043612680233 1202.2662 1 1.0 0.03700000047683716 2 1.0 0 1814949
142 1 78 111 101.0354 6.318256016221629 0.013334831493254656 1200.6564 1 1.0 0.03700000047683716 2 1.0 0 1814949
143 1 77 111 204.88766 6.40943526030828 0.001800481667572518 1199.3091 1 1.0 0.03700000047683716 2 1.0 0 1814949
144 1 88 123 30.4146 39.29856047972308 0.05807195655841179 1274.1775 1 1.0 0.03700000047683716 3 1.0 0 1814897
145 3 87 123 392.31512 39.31117070201371 0.0014574440495039355 1272.4113 1 1.0 0.03700000047683716 2 1.0 0 1814897
146 2 87 122 255.71442 39.330501718665616 0.007242175612375809 1271.8395 1 1.0 0.03700000047683716 2 1.0 0 1814897
147 1 87 121 264.9444 39.346033213549646 0.0001 1269.9875 1 1.0 0.03700000047683716 2 1.0 0 1814897
148 2 87 120 40.274784 39.35513803979633 0.25949362712453256 1269.9875 1 1.0 0.03700000047683716 2 1.0 0 1814897
149 1 86 120 264.69568 39.3642354521253 0.002060056622733857 1259.5365 1 1.0 0.03700000047683716 2 1.0 0 1814897
150 3 85 120 271.24835 39.38022291023187 0.01151450687906955 1258.9912 1 1.0 0.03700000047683716 2 1.0 0 1814897
151 2 84 120 92.42986 39.391071591157356 0.0028513490792009587 1255.8679 1 1.0 0.03700000047683716 2 1.0 0 1814897
152 3 85 120 26.374811 39.39461558948357 0.6141187331758895 1255.6044 1 1.0 0.03700000047683716 2 1.0 0 1814897
153 3 85 119 312.53296 39.4047253620811 0.0001 1239.4071 1 1.0 0.03700000047683716 2 1.0 0 1814897
154 1 85 118 95.44137 39.41689542454205 0.0001 1239.4071 1 1.0 0.03700000047683716 2 1.0 0 1814897
155 2 86 118 197.8228 39.42564363624847 0.0024213786632203364 1239.4071 1 1.0 0.03700000047683716 2 1.0 0 1814897
156 2 86 117 74.06432 39.43375414178866 0.03068226147764896 1238.9281 1 1.0 0.03700000047683716 2 1.0 0 1814897
157 2 85 117 257.1682 39.443634956876124 0.008285383643404302 1236.6556 1 1.0 0.03700000047683716 2 1.0 0 1814897
158 2 84 117 258.28107 39.45901104351831 0.011709778416452862 1234.5249 1 1.0 0.03700000047683716 2 1.0 0 1814897
159 2 83 117 250.58632 39.47419079971464 0.00729880026853525 1231.5005 1 1.0 0.03700000047683716 2 1.0 0 1814897
160 1 82 117 250.58632 39.48914101577476 0.04260320872221977 1229.6715 1 1.0 0.03700000047683716 2 1.0 0 1814897
161 1 81 117 275.26105 39.50482727801188 0.007190440005348261 1218.9957 1 1.0 0.03700000047683716 2 1.0 0 1814897
162 3 80 117 148.39287 39.51746506546071 0.018703814623537606 1217.0165 1 1.0 0.03700000047683716 2 1.0 0 1814897
163 2 80 116 207.01283 39.528066996930164 0.005170860939648744 1214.241 1 1.0 0.03700000047683716 2 1.0 0 1814897
164 2 79 116 124.46593 39.537955153107085 0.03671546361596955 1213.1705 1 1.0 0.03700000047683716 2 1.0 0 1814897
165 2 79 115 304.127 39.550740286708454 0.009232929886849145 1208.6007 1 1.0 0.03700000047683716 2 1.0 0 1814897
166 2 78 114 277.96915 39.568104497682924 0.006577158263172624 1205.7927 1 1.0 0.03700000047683716 2 1.0 0 1814897
167 1 78 113 221.66402 39.58300877367136 0.004125291621317118 1203.9645 1 1.0 0.03700000047683716 2 1.0 0 1814897
168 2 77 113 68.13898 39.59165375130738 0.04957590947241508 1203.05 1 1.0 0.03700000047683716 2 1.0 0 1814897
169 1 77 112 281.94278 39.602096858889205 0.0012871939464216885 1199.672 1 1.0 0.03700000047683716 2 1.0 0 1814897
170 1 77 111 75.33216 39.61275451854961 0.0048969321963468065 1199.3091 1 1.0 0.03700000047683716 2 1.0 0 1814897
171 3 46 47 68.01353 1.0216335462900437 0.18717195220596525 1057.1187 1 1.0 0.03700000047683716 1 1.0 0 1814727
172 3 46 46 242.44823 1.1203843246659964 0.018902533543934903 1044.3884 1 1.0 0.03700000047683716 2 1.0 0 1814727
173 3 45 46 106.40651 1.2313470514854314 0.11686140747695153 1039.8055 1 1.0 0.03700000047683716 2 1.0 0 1814727
174 3 45 45 252.04065 1.3453608840888185 0.018070273068899998 1027.3707 1 1.0 0.03700000047683716 2 1.0 0 1814727
175 3 44 45 89.050026 1.4538540286743715 0.04324481781773677 1022.8163 1 1.0 0.03700000047683716 2 1.0 0 1814727
176 3 44 44 276.56473 1.570147711600883 0.032591324685877686 1018.96533 1 1.0 0.03700000047683716 2 1.0 0 1814727
177 3 44 43 253.85173 1.7388609842226417 0.025242679813399838 1009.9517 1 1.0 0.03700000047683716 2 1.0 0 1814727
178 3 44 42 258.4833 1.9018230095129312 0.028465943430097423 1003.5438 1 1.0 0.03700000047683716 2 1.0 0 1814727
179 3 44 41 272.64972 2.070764278815334 0.01462315649125729 996.18585 1 1.0 0.03700000047683716 2 1.0 0 1814727
180 3 44 40 76.66606 2.1818735998901797 0.07954482805564142 992.19885 1 1.0 0.03700000047683716 2 1.0 0 1814727
181 3 43 40 215.98839 2.2749602337622603 0.039806669226419046 986.10046 1 1.0 0.03700000047683716 2 1.0 0 1814727
182 3 43 39 233.04376 2.417786952743201 0.006948582168143065 977.5027 1 1.0 0.03700000047683716 2 1.0 0 1814727
183 3 42 39 72.94542 2.5151151324929337 0.15035337976731133 975.88336 1 1.0 0.03700000047683716 2 1.0 0 1814727
184 3 42 38 312.82193 2.637818970051755 0.002698782279856425 964.9158 1 1.0 0.03700000047683716 2 1.0 0 1814727
185 3 41 38 20.886225 2.743963849778881 0.4366862680869013 964.07153 1 1.0 0.03700000047683716 2 1.0 0 1814727
186 3 41 37 301.0639 2.8463688384502075 0.0091208930893067 954.9508 1 1.0 0.03700000047683716 2 1.0 0 1814727
187 3 40 37 107.26411 2.9762486696278887 0.07070156517516031 952.20483 1 1.0 0.03700000047683716 2 1.0 0 1814727
188 3 40 36 302.90894 3.1067154214160295 0.02458360703304143 944.6211 1 1.0 0.03700000047683716 2 1.0 0 1814727
189 3 39 35 335.44965 3.309762617883129 0.0057587262898318725 937.1745 1 1.0 0.03700000047683716 2 1.0 0 1814727
190 3 38 35 46.211166 3.431160289172047 0.16242126864994 935.24274 1 1.0 0.03700000047683716 2 1.0 0 1814727
191 3 38 34 286.46957 3.5369783943650615 0.004812382184576919 927.73706 1 1.0 0.03700000047683716 2 1.0 0 1814727
192 3 37 34 105.56454 3.661675494457526 0.04042393500405267 926.35846 1 1.0 0.03700000047683716 2 1.0 0 1814727
193 2 37 33 190.78214 3.7559365907948865 0.022355419432847762 922.0911 1 1.0 0.03700000047683716 2 1.0 0 1814727
194 3 36 33 252.32101 3.896877367205621 0.0001 917.8261 1 1.0 0.03700000047683716 2 1.0 0 1814727
195 1 36 32 61.15648 3.9965873978370707 0.07323742231379575 917.8261 1 1.0 0.03700000047683716 2 1.0 0 1814727
196 3 35 32 307.7957 4.113942632066173 0.00010549434162657005 913.34717 1 1.0 0.03700000047683716 2 1.0 0 1814727
197 2 35 31 36.009884 4.223299345141884 0.16623108071961462 913.3147 1 1.0 0.03700000047683716 2 1.0 0 1814727
198 3 34 31 314.9087 4.334918630181918 0.004181442103288248 907.32874 1 1.0 0.03700000047683716 2 1.0 0 1814727
199 3 33 31 68.016396 4.45671824657268 0.052031593783317974 906.01196 1 1.0 0.03700000047683716 2 1.0 0 1814727
200 3 33 30 227.3643 4.550672137573314 0.016133635899406914 902.47296 1 1.0 0.03700000047683716 2 1.0 0 1814727
201 3 32 30 235.26318 4.697823493865249 0.005202679844505924 898.80475 1 1.0 0.03700000047683716 2 1.0 0 1814727
202 2 32 29 67.06667 4.793987772303846 0.059816874072798294 897.58075 1 1.0 0.03700000047683716 2 1.0 0 1814727
203 3 31 29 288.50705 4.907087482657164 0.0007389621886397204 893.56903 1 1.0 0.03700000047683716 2 1.0 0 1814727
204 3 31 28 65.30768 5.019627762463015 0.09475785536649031 893.35583 1 1.0 0.03700000047683716 2 1.0 0 1814727
205 3 30 28 306.53897 5.1379036808357545 0.0030097557221646625 887.1674 1 1.0 0.03700000047683716 2 1.0 0 1814727
206 3 29 28 57.2405 5.253613859995794 0.09247534230343585 886.2448 1 1.0 0.03700000047683716 2 1.0 0 1814727
207 3 29 27 321.3442 5.374033071415463 0.001913425383770092 880.9515 1 1.0 0.03700000047683716 2 1.0 0 1814727
208 3 29 26 14.111939 5.4807336542238865 0.3373426526924487 880.3366 1 1.0 0.03700000047683716 2 1.0 0 1814727
209 3 28 26 331.2642 5.590589847766186 0.0013140651680145262 875.57605 1 1.0 0.03700000047683716 2 1.0 0 1814727
210 2 27 26 32.294006 5.706229515691204 0.14079247030362593 875.14075 1 1.0 0.03700000047683716 2 1.0 0 1814727
211 3 27 25 296.037 5.8106641096913165 0.005529382900333384 870.594 1 1.0 0.03700000047683716 2 1.0 0 1814727
212 3 26 25 95.27275 5.935131038747872 0.00512636945959949 868.9571 1 1.0 0.03700000047683716 2 1.0 0 1814727
213 3 45 53 107.60671 1.0320154971442788 0.03135740796003921 1083.2207 1 1.0 0.03700000047683716 1 1.0 0 1814717
214 3 45 52 89.79537 1.0907472015708237 0.12713231538823683 1079.8464 1 1.0 0.03700000047683716 2 1.0 0 1814717
215 3 44 52 303.9874 1.2079067087078772 0.0006798473937359472 1068.4305 1 1.0 0.03700000047683716 2 1.0 0 1814717
216 3 44 51 27.021284 1.3063895143840565 0.468837049086482 1068.2239 1 1.0 0.03700000047683716 2 1.0 0 1814717
217 3 43 51 316.38928 1.408562123898331 0.01574312820016197 1055.5553 1 1.0 0.03700000047683716 2 1.0 0 1814717
218 3 43 50 48.262215 1.517054414564745 0.2473897080617943 1050.5743 1 1.0 0.03700000047683716 2 1.0 0 1814717
219 3 42 50 314.60748 1.6250165603753626 0.0022904129552865065 1038.6348 1 1.0 0.03700000047683716 2 1.0 0 1814717
220 3 42 49 26.883413 1.7266180574790457 0.34232560990690725 1037.9142 1 1.0 0.03700000047683716 2 1.0 0 1814717
221 3 41 49 276.32428 1.8168294121496553 0.034869371282688105 1028.7113 1 1.0 0.03700000047683716 2 1.0 0 1814717
222 3 40 49 258.5729 1.9759736897505005 0.03356175919107906 1019.07605 1 1.0 0.03700000047683716 2 1.0 0 1814717
223 3 39 49 264.7015 2.1316600587591408 0.004750431157774058 1010.3979 1 1.0 0.03700000047683716 2 1.0 0 1814717
224 2 38 49 28.189995 2.218802042870519 0.4266420995967706 1009.14044 1 1.0 0.03700000047683716 2 1.0 0 1814717
225 3 38 48 308.16544 2.318875609982877 0.015061648559883106 997.1134 1 1.0 0.03700000047683716 2 1.0 0 1814717
226 3 37 48 105.21961 2.4418673279525174 0.052015811365751494 992.4719 1 1.0 0.03700000047683716 2 1.0 0 1814717
227 3 37 47 194.68037 2.5310946622954598 0.039879381495093534 986.99884 1 1.0 0.03700000047683716 2 1.0 0 1814717
228 3 36 47 203.1351 2.649453850522921 0.011385251124080217 979.2351 1 1.0 0.03700000047683716 2 1.0 0 1814717
229 3 36 46 153.78421 2.755645674976344 0.031543492708467076 976.92236 1 1.0 0.03700000047683716 2 1.0 0 1814717
230 3 35 46 168.66959 2.8515832623546373 0.035212091989003005 972.0715 1 1.0 0.03700000047683716 2 1.0 0 1814717
231 3 35 45 292.79608 2.9888800659735093 0.0014923378799713415 966.13226 1 1.0 0.03700000047683716 2 1.0 0 1814717
232 2 35 44 47.96069 3.0902631420891287 0.12418363192295759 965.6953 1 1.0 0.03700000047683716 2 1.0 0 1814717
233 3 34 44 287.41272 3.1900445611422947 0.035236368038021056 959.7394 1 1.0 0.03700000047683716 2 1.0 0 1814717
234 3 34 43 266.18292 3.354752000244238 0.01800377470024473 949.612 1 1.0 0.03700000047683716 2 1.0 0 1814717
235 3 34 42 291.59958 3.520705172616979 0.022001782287743712 944.8197 1 1.0 0.03700000047683716 2 1.0 0 1814717
236 3 33 41 261.58817 3.6852915976297593 0.02066352836262403 938.404 1 1.0 0.03700000047683716 2 1.0 0 1814717
237 3 33 40 253.63956 3.8385837617206877 0.018017723183040457 932.99866 1 1.0 0.03700000047683716 2 1.0 0 1814717
238 3 33 39 250.37878 3.9885409925213042 0.01217466894641566 928.42865 1 1.0 0.03700000047683716 2 1.0 0 1814717
239 3 33 38 257.23624 4.139568319097162 0.0002194773189172721 925.3804 1 1.0 0.03700000047683716 2 1.0 0 1814717
240 3 32 38 28.815104 4.224675072857842 0.10812175453203007 925.3239 1 1.0 0.03700000047683716 2 1.0 0 1814717
241 3 32 37 273.50272 4.314621809084981 0.012701881258900639 922.2084 1 1.0 0.03700000047683716 2 1.0 0 1814717
242 3 32 36 196.19545 4.454367949490517 0.01604994297264748 918.7344 1 1.0 0.03700000047683716 2 1.0 0 1814717
243 3 31 36 243.01994 4.585044861134613 0.004651100002480134 915.58545 1 1.0 0.03700000047683716 2 1.0 0 1814717
244 2 31 35 63.624702 4.676278443462362 0.05301953361967629 914.45514 1 1.0 0.03700000047683716 2 1.0 0 1814717
245 3 30 35 246.5988 4.768577182214774 0.015829121521995504 911.0818 1 1.0 0.03700000047683716 2 1.0 0 1814717
246 3 30 34 261.04413 4.919612644191583 0.001051684764856801 907.17834 1 1.0 0.03700000047683716 2 1.0 0 1814717
247 3 30 33 59.632343 5.015021139957953 0.07298138126020286 906.9038 1 1.0 0.03700000047683716 2 1.0 0 1814717
248 3 29 33 319.4633 5.127811210408618 0.0014241262539317987 902.55176 1 1.0 0.03700000047683716 2 1.0 0 1814717
249 3 28 33 25.410032 5.23041895491757 0.19528582982883802 902.0968 1 1.0 0.03700000047683716 2 1.0 0 1814717
250 3 28 32 294.80692 5.325691182717992 0.010315072110579528 897.1346 1 1.0 0.03700000047683716 2 1.0 0 1814717
251 3 28 31 252.2064 5.488440459865757 0.01053132210419044 894.0936 1 1.0 0.03700000047683716 2 1.0 0 1814717
252 3 28 30 251.11722 5.638190819042161 0.013101606845093745 891.43756 1 1.0 0.03700000047683716 2 1.0 0 1814717
253 3 28 29 155.18504 5.759075322890179 0.01765942423787441 888.1475 1 1.0 0.03700000047683716 2 1.0 0 1814717
254 3 27 29 111.26401 5.838350156368305 0.029038654115212736 885.40704 1 1.0 0.03700000047683716 2 1.0 0 1814717
255 3 27 28 302.25504 5.961381243867554 0.013016375828138364 882.1761 1 1.0 0.03700000047683716 2 1.0 0 1814717
256 3 27 27 143.71188 6.094067308996796 0.00720299688839878 878.2418 1 1.0 0.03700000047683716 2 1.0 0 1814717
257 3 26 27 116.396614 6.171455310554093 0.036814603662727166 877.20667 1 1.0 0.03700000047683716 2 1.0 0 1814717
258 3 26 26 254.80621 6.281896865079894 0.015558794609012048 872.9216 1 1.0 0.03700000047683716 2 1.0 0 1814717
259 3 26 25 230.57635 6.426309529581588 0.002118184756428606 868.9571 1 1.0 0.03700000047683716 2 1.0 0 1814717
260 3 56 151 156.56496 1.0404143249112987 0.013950785335925893 1288.019 1 1.0 0.03700000047683716 1 1.0 0 1815703
261 3 56 150 207.5703 1.134409048633775 0.021531791450723783 1285.8348 1 1.0 0.03700000047683716 2 1.0 0 1815703
262 3 57 150 55.430515 1.2022978006579073 0.27253601097862834 1281.3655 1 1.0 0.03700000047683716 2 1.0 0 1815703
263 3 57 149 295.95557 1.2930015898283547 0.026529531427100708 1266.2587 1 1.0 0.03700000047683716 2 1.0 0 1815703
264 3 57 148 115.72352 1.399268869157381 0.038052459129227216 1258.4071 1 1.0 0.03700000047683716 2 1.0 0 1815703
265 3 58 148 178.4534 1.4752051467141256 0.0357051427082163 1254.0035 1 1.0 0.03700000047683716 2 1.0 0 1815703
266 3 58 147 255.63432 1.5872567804812747 0.013427841557438614 1247.6318 1 1.0 0.03700000047683716 2 1.0 0 1815703
267 3 58 146 261.16013 1.7206576295377625 0.024396288953976508 1244.1992 1 1.0 0.03700000047683716 2 1.0 0 1815703