# MODFLOW-6 SFR input; created by SFRmaker v. 0.11.3

BEGIN Options
  save_flows
  BUDGET FILEOUT tf.sfr.cbc
  STAGE FILEOUT tf.sfr.stage.bin
  unit_conversion  128390.4
  auxiliary line_id
END Options

BEGIN Dimensions
  NREACHES 493
END Dimensions

BEGIN Packagedata
#rno k i j rlen rwid rgrd rtp rbth rhk man ncon ustrf ndv line_id
1 3 83 160 29.546015 3.30781208970736 0.01317958782930652 1378.6824 1 1.0 0.03700000047683716 1 1.0 0 1815711
2 3 83 159 258.70886 3.5709561995386396 0.015121667422404018 1378.293 1 1.0 0.03700000047683716 2 1.0 0 1815711
3 3 83 158 208.73987 3.997684019130221 0.03538661178937741 1374.3809 1 1.0 0.03700000047683716 2 1.0 0 1815711
4 3 84 158 195.19568 4.3664314858324005 0.010114799914698979 1366.9943 1 1.0 0.03700000047683716 2 1.0 0 1815711
5 3 84 157 125.48434 4.6591759925477305 0.04051294657060901 1365.0199 1 1.0 0.03700000047683716 2 1.0 0 1815711
6 3 85 157 171.89035 4.930645398297106 0.02154282030564387 1359.9362 1 1.0 0.03700000047683716 2 1.0 0 1815711
7 3 85 156 262.72375 5.327399058134333 0.006158719804036087 1356.2332 1 1.0 0.03700000047683716 2 1.0 0 1815711
8 3 85 155 88.31678 5.647859131883736 0.05159980811787844 1354.6151 1 1.0 0.03700000047683716 2 1.0 0 1815711
9 3 84 155 227.14778 5.9358428532134395 0.003084166260422211 1350.058 1 1.0 0.03700000047683716 2 1.0 0 1815711
10 2 84 154 245.36812 6.367196397287895 0.0014954810019250089 1349.3574 1 1.0 0.03700000047683716 2 1.0 0 1815711
11 3 85 154 125.21224 6.705494539475541 0.022232757989836472 1348.9905 1 1.0 0.03700000047683716 2 1.0 0 1815711
12 3 85 153 294.89835 7.089007773387518 0.02287516936626463 1346.2067 1 1.0 0.03700000047683716 2 1.0 0 1815711
13 3 86 152 259.98416 7.59555257479565 0.01082547917570756 1339.4608 1 1.0 0.03700000047683716 2 1.0 0 1815711
14 3 86 151 255.43497 8.066072220558796 0.01270188993121104 1336.6464 1 1.0 0.03700000047683716 2 1.0 0 1815711
15 3 86 150 250.13744 8.527602961487288 0.01250826038200313 1333.4019 1 1.0 0.03700000047683716 2 1.0 0 1815711
16 2 86 149 275.71194 9.007643732276133 0.01009150560034729 1330.2731 1 1.0 0.03700000047683716 2 1.0 0 1815711
17 2 86 148 94.28542 9.345409208527183 0.088423383412718 1327.4907 1 1.0 0.03700000047683716 2 1.0 0 1815711
18 3 85 148 164.77963 9.581906198192875 0.023806653172822146 1319.1537 1 1.0 0.03700000047683716 2 1.0 0 1815711
19 3 85 147 254.64177 9.964790930874225 0.011756808087725203 1315.2308 1 1.0 0.03700000047683716 2 1.0 0 1815711
20 1 85 146 221.87613 10.39979802837907 0.024705530080241393 1312.237 1 1.0 0.03700000047683716 2 1.0 0 1815711
21 1 84 146 250.62552 10.831138422959691 0.0001 1306.7555 1 1.0 0.03700000047683716 2 1.0 0 1815711
22 3 83 146 253.3421 11.291204889744485 0.001802562761443274 1306.7555 1 1.0 0.03700000047683716 2 1.0 0 1815711
23 2 83 145 251.53546 11.75210133475015 0.0001 1306.2988 1 1.0 0.03700000047683716 2 1.0 0 1815711
24 2 83 144 250.13594 12.210070122959525 0.003855325494700178 1306.2988 1 1.0 0.03700000047683716 2 1.0 0 1815711
25 2 83 143 261.7864 12.677397784813072 0.021252901389647756 1305.3345 1 1.0 0.03700000047683716 2 1.0 0 1815711
26 2 83 142 250.93889 13.145458252356802 0.0001 1299.7708 1 1.0 0.03700000047683716 2 1.0 0 1815711
27 1 83 141 40.368492 13.411389158165843 0.0001 1299.7708 1 1.0 0.03700000047683716 2 1.0 0 1815711
28 2 82 141 220.41447 13.649454726434787 0.0001 1299.7708 1 1.0 0.03700000047683716 2 1.0 0 1815711
29 2 82 140 260.78296 14.088732512089033 0.012481662511573564 1299.7708 1 1.0 0.03700000047683716 2 1.0 0 1815711
30 2 82 139 271.47202 14.574621910287155 0.0001 1296.5157 1 1.0 0.03700000047683716 2 1.0 0 1815711
31 1 81 138 266.6726 15.065886108371037 0.0001 1296.5157 1 1.0 0.03700000047683716 2 1.0 0 1815711
32 1 81 137 70.70896 15.373877564621315 0.0001 1296.5157 1 1.0 0.03700000047683716 2 1.0 0 1815711
33 1 82 137 285.1908 15.698774366738851 0.0001 1296.5157 1 1.0 0.03700000047683716 2 1.0 0 1815711
34 1 82 136 147.38858 16.093670159108516 0.0001 1296.5157 1 1.0 0.03700000047683716 2 1.0 0 1815711
35 1 83 136 131.114 16.34791094202786 0.0001 1296.5157 1 1.0 0.03700000047683716 2 1.0 0 1815711
36 2 83 135 312.77048 16.753127526946447 0.0001 1296.5157 1 1.0 0.03700000047683716 2 1.0 0 1815711
37 1 84 134 270.87003 17.285925404227168 0.0001 1296.5157 1 1.0 0.03700000047683716 2 1.0 0 1815711
38 2 85 134 222.82242 17.736610710090105 0.0001 1296.5157 1 1.0 0.03700000047683716 2 1.0 0 1815711
39 1 85 133 226.75629 18.147024688164105 0.0001 1296.5157 1 1.0 0.03700000047683716 2 1.0 0 1815711
40 2 86 133 39.361153 18.38995958086099 0.0001 1296.5157 1 1.0 0.03700000047683716 2 1.0 0 1815711
41 2 86 132 255.63345 18.659257648582205 0.0001 1296.5157 1 1.0 0.03700000047683716 2 1.0 0 1815711
42 1 86 131 300.53873 19.166979663997495 0.0001 1296.5157 1 1.0 0.03700000047683716 2 1.0 0 1815711
43 1 86 130 70.25732 19.505473488483187 0.0001 1296.5157 1 1.0 0.03700000047683716 2 1.0 0 1815711
44 1 87 130 315.09625 19.857259445378354 0.0001 1296.5157 1 1.0 0.03700000047683716 2 1.0 0 1815711
45 1 87 129 21.481985 20.164517204447343 0.0001 1296.5157 1 1.0 0.03700000047683716 2 1.0 0 1815711
46 2 88 129 285.30783 20.444580918780016 0.0001 1296.5157 1 1.0 0.03700000047683716 2 1.0 0 1815711
47 1 88 128 274.46 20.95558540445229 0.0001 1296.5157 1 1.0 0.03700000047683716 2 1.0 0 1815711
48 2 88 127 272.04498 21.45448344088777 0.028393705892844925 1296.5157 1 1.0 0.03700000047683716 2 1.0 0 1815711
49 2 88 126 141.9396 21.83240435108381 0.0254968902901414 1288.7914 1 1.0 0.03700000047683716 2 1.0 0 1815711
50 2 87 126 115.01175 22.06697170824781 0.08362235834325053 1285.1724 1 1.0 0.03700000047683716 2 1.0 0 1815711
51 2 87 125 255.13408 22.404871799656057 0.004048690745300356 1275.5548 1 1.0 0.03700000047683716 2 1.0 0 1815711
52 2 87 124 202.27318 22.82243375342819 0.0001 1274.5219 1 1.0 0.03700000047683716 2 1.0 0 1815711
53 1 88 124 67.2036 23.068435375534097 0.0001 1274.5219 1 1.0 0.03700000047683716 2 1.0 0 1815711
54 1 88 123 35.352493 23.16205798863791 0.009740765630739176 1274.5219 1 1.0 0.03700000047683716 2 1.0 0 1815711
55 1 111 121 134.02791 125.4169146304587 0.002659485751543236 1294.3286 1 1.0 0.03700000047683716 1 1.0 0 1814967
56 1 110 121 216.20222 125.45243812742599 0.0013437759214128223 1293.9722 1 1.0 0.03700000047683716 2 1.0 0 1814967
57 1 110 122 116.506584 125.48618445152098 0.0022998214036755627 1293.6816 1 1.0 0.03700000047683716 2 1.0 0 1814967
58 1 109 122 303.07346 125.52874203697249 0.001714611789154305 1293.4137 1 1.0 0.03700000047683716 2 1.0 0 1814967
59 1 108 122 250.12155 125.58485206470056 0.0001 1292.894 1 1.0 0.03700000047683716 2 1.0 0 1814967
60 1 107 122 124.97299 125.62289755120587 0.0020502476731422683 1292.894 1 1.0 0.03700000047683716 2 1.0 0 1814967
61 1 107 123 128.55511 125.6486126527993 0.002964514608210718 1292.6378 1 1.0 0.03700000047683716 2 1.0 0 1814967
62 1 106 123 252.12965 125.6872251363812 0.00014863616934089724 1292.2567 1 1.0 0.03700000047683716 2 1.0 0 1814967
63 1 105 123 64.97041 125.7193882851324 0.007036330811824887 1292.2192 1 1.0 0.03700000047683716 2 1.0 0 1814967
64 1 105 122 196.4471 125.74590362595049 0.002117697994548388 1291.7621 1 1.0 0.03700000047683716 2 1.0 0 1814967
65 2 104 122 141.91461 125.78022332977031 0.0001 1291.3461 1 1.0 0.03700000047683716 2 1.0 0 1814967
66 1 104 123 127.45314 125.80754502625967 0.0024825300448270506 1291.3461 1 1.0 0.03700000047683716 2 1.0 0 1814967
67 1 103 123 273.69043 125.84823261959488 0.0014758669659136728 1291.0297 1 1.0 0.03700000047683716 2 1.0 0 1814967
68 1 102 122 280.6066 125.90445445200483 0.0012663518333009423 1290.6257 1 1.0 0.03700000047683716 2 1.0 0 1814967
69 1 101 122 281.51642 125.96146998622281 0.0001 1290.2704 1 1.0 0.03700000047683716 2 1.0 0 1814967
70 1 101 123 109.9565 126.00117671943644 0.0015298131071844736 1290.2704 1 1.0 0.03700000047683716 2 1.0 0 1814967
71 1 100 123 152.7077 126.02781852459792 0.00518472895082781 1290.1022 1 1.0 0.03700000047683716 2 1.0 0 1814967
72 1 100 124 233.04485 126.06694501256113 0.005560201788444274 1289.3104 1 1.0 0.03700000047683716 2 1.0 0 1814967
73 1 99 124 250.11234 126.1159511713829 0.004513596856685857 1288.0146 1 1.0 0.03700000047683716 2 1.0 0 1814967
74 1 98 124 265.30466 126.16822940627196 0.0001 1286.8857 1 1.0 0.03700000047683716 2 1.0 0 1814967
75 2 97 124 48.998734 126.20010892028867 0.03304454031087005 1286.8857 1 1.0 0.03700000047683716 2 1.0 0 1814967
76 1 97 123 277.3601 126.23321117884169 0.002798250455298851 1285.2666 1 1.0 0.03700000047683716 2 1.0 0 1814967
77 1 96 123 98.66559 126.27135106168085 0.011404626061760417 1284.4905 1 1.0 0.03700000047683716 2 1.0 0 1814967
78 2 96 122 186.094 126.30023406164575 0.0001 1283.3652 1 1.0 0.03700000047683716 2 1.0 0 1814967
79 2 95 122 49.255592 126.32410524030979 0.02321674825190531 1283.3652 1 1.0 0.03700000047683716 2 1.0 0 1814967
80 1 95 123 368.82526 126.36651078748986 0.002333342655671603 1282.2217 1 1.0 0.03700000047683716 2 1.0 0 1814967
81 1 94 123 272.91226 126.43160156652905 0.0029189998780022653 1281.3611 1 1.0 0.03700000047683716 2 1.0 0 1814967
82 1 93 123 261.76273 126.48583310226108 0.004205450087036449 1280.5645 1 1.0 0.03700000047683716 2 1.0 0 1814967
83 1 92 123 256.25336 126.53837501295358 0.0029629947206770107 1279.4636 1 1.0 0.03700000047683716 2 1.0 0 1814967
84 1 91 123 250.41933 126.58976633832195 0.0029428178968126033 1278.7043 1 1.0 0.03700000047683716 2 1.0 0 1814967
85 1 90 123 251.35461 126.64066072097584 0.0049104049007890355 1277.9674 1 1.0 0.03700000047683716 2 1.0 0 1814967
86 1 89 123 258.08017 126.69233216474096 0.008568282149297881 1276.7332 1 1.0 0.03700000047683716 2 1.0 0 1814967
87 1 88 123 231.09567 126.74194877960204 0.0014901202938035478 1274.5219 1 1.0 0.03700000047683716 2 1.0 0 1814967
88 1 102 96 237.85654 3.5134255191625128 0.0040753992483785455 1398.7229 1 1.0 0.03700000047683716 1 1.0 0 1814949
89 1 101 96 264.90335 4.00504419961358 0.005024219637150701 1397.7535 1 1.0 0.03700000047683716 2 1.0 0 1814949
90 1 101 97 141.86505 4.402798461312076 0.015585653764095 1396.4226 1 1.0 0.03700000047683716 2 1.0 0 1814949
91 1 100 97 121.53572 4.660362216525082 0.03709344611056044 1394.2115 1 1.0 0.03700000047683716 2 1.0 0 1814949
92 2 100 98 250.30739 5.0239652545288775 0.021582350070668114 1389.7034 1 1.0 0.03700000047683716 2 1.0 0 1814949
93 2 100 99 274.82327 5.537458893885908 0.011330967866090258 1384.3011 1 1.0 0.03700000047683716 2 1.0 0 1814949
94 1 100 100 199.12505 6.000904369520779 0.013223744409805501 1381.1871 1 1.0 0.03700000047683716 2 1.0 0 1814949
95 2 99 100 135.47241 6.328087051084306 0.029207327512412257 1378.554 1 1.0 0.03700000047683716 2 1.0 0 1814949
96 1 99 101 184.16417 6.64064057057359 0.01674849493134819 1374.5972 1 1.0 0.03700000047683716 2 1.0 0 1814949
97 1 98 101 256.28027 7.07132435298673 0.02208104225491653 1371.5127 1 1.0 0.03700000047683716 2 1.0 0 1814949
98 2 97 101 234.74832 7.55147140956636 0.021370127503938064 1365.8538 1 1.0 0.03700000047683716 2 1.0 0 1814949
99 2 97 102 193.61409 7.970341139146261 0.017162366525851007 1360.8372 1 1.0 0.03700000047683716 2 1.0 0 1814949
100 2 96 102 158.28113 8.31443858792933 0.044827434621355675 1357.5143 1 1.0 0.03700000047683716 2 1.0 0 1814949
101 2 96 103 226.23752 8.690436629269923 0.014461476328316304 1350.419 1 1.0 0.03700000047683716 2 1.0 0 1814949
102 2 95 103 80.643936 8.990517438667155 0.10261791635738411 1347.1472 1 1.0 0.03700000047683716 2 1.0 0 1814949
103 2 95 104 274.68396 9.337970959847613 0.0138071496406337 1338.8717 1 1.0 0.03700000047683716 2 1.0 0 1814949
104 2 95 105 171.78038 9.774541595955963 0.016907034847575445 1335.0791 1 1.0 0.03700000047683716 2 1.0 0 1814949
105 2 94 105 169.08075 10.107849384184723 0.027721995986598892 1332.1748 1 1.0 0.03700000047683716 2 1.0 0 1814949
106 2 94 106 174.35669 10.443676255920188 0.03345865451261263 1327.4875 1 1.0 0.03700000047683716 2 1.0 0 1814949
107 2 93 106 180.48175 10.79065088385629 0.03625415241664477 1321.6538 1 1.0 0.03700000047683716 2 1.0 0 1814949
108 2 93 107 272.0851 11.233189303275918 0.004565885851732088 1315.1106 1 1.0 0.03700000047683716 2 1.0 0 1814949
109 1 93 108 64.80082 11.562609605168136 0.10814388714855339 1313.8683 1 1.0 0.03700000047683716 2 1.0 0 1814949
110 2 92 108 280.80725 11.900558312973313 0.01378906812069173 1306.8605 1 1.0 0.03700000047683716 2 1.0 0 1814949
111 2 92 109 130.3732 12.302627149749204 0.04015290951527234 1302.9884 1 1.0 0.03700000047683716 2 1.0 0 1814949
112 2 91 109 187.75175 12.613702450410445 0.021596653386700262 1297.7535 1 1.0 0.03700000047683716 2 1.0 0 1814949
113 2 91 110 186.12332 12.97929327734701 0.0196009469921489 1293.6987 1 1.0 0.03700000047683716 2 1.0 0 1814949
114 2 90 110 136.80522 13.295064883044633 0.021239245222915374 1290.0505 1 1.0 0.03700000047683716 2 1.0 0 1814949
115 1 90 111 238.88147 13.662426134856647 0.02506800237312058 1287.1449 1 1.0 0.03700000047683716 2 1.0 0 1814949
116 1 89 111 260.7191 14.150956449247257 0.03427597693288134 1281.1566 1 1.0 0.03700000047683716 2 1.0 0 1814949
117 1 88 111 254.08926 14.654356804716874 0.02266683497483845 1272.2202 1 1.0 0.03700000047683716 2 1.0 0 1814949
118 1 87 111 213.91228 15.11198680705537 0.016467989233148975 1266.4608 1 1.0 0.03700000047683716 2 1.0 0 1814949
119 1 87 112 168.69975 15.486119408809023 0.032474223960096624 1262.9381 1 1.0 0.03700000047683716 2 1.0 0 1814949
120 1 86 112 281.84363 15.926679230417472 0.014312239400951898 1257.4597 1 1.0 0.03700000047683716 2 1.0 0 1814949
121 1 85 112 105.6299 16.30556638743264 0.03496625020711266 1253.4259 1 1.0 0.03700000047683716 2 1.0 0 1814949
122 2 85 111 182.84175 16.58764548995851 0.014534266310386868 1249.7324 1 1.0 0.03700000047683716 2 1.0 0 1814949
123 2 84 111 145.35756 16.908571763119816 0.026702909348611133 1247.075 1 1.0 0.03700000047683716 2 1.0 0 1814949
124 2 84 112 192.12643 17.23857743202857 0.02755258077904898 1243.1935 1 1.0 0.03700000047683716 2 1.0 0 1814949
125 2 83 112 149.7303 17.572858285493616 0.01939930039820743 1237.8999 1 1.0 0.03700000047683716 2 1.0 0 1814949
126 1 83 113 180.26923 17.89554447939141 0.033081081593523146 1234.9952 1 1.0 0.03700000047683716 2 1.0 0 1814949
127 1 82 113 279.9667 18.345581899106023 0.0001 1229.0317 1 1.0 0.03700000047683716 2 1.0 0 1814949
128 2 82 112 15.889154 18.63488211970532 0.20725400045351458 1229.0317 1 1.0 0.03700000047683716 2 1.0 0 1814949
129 1 81 112 278.34708 18.922598125165262 0.02022042397896606 1225.7386 1 1.0 0.03700000047683716 2 1.0 0 1814949
130 2 80 112 253.7921 19.442943566619142 0.06309375026116008 1220.1104 1 1.0 0.03700000047683716 2 1.0 0 1814949
131 1 79 112 255.50504 19.940954343881085 0.007167846596712121 1204.0977 1 1.0 0.03700000047683716 2 1.0 0 1814949
132 1 78 112 224.77708 20.410594396736574 0.007162043612680233 1202.2662 1 1.0 0.03700000047683716 2 1.0 0 1814949
133 1 78 111 101.0354 20.729186841205543 0.013334831493254656 1200.6564 1 1.0 0.03700000047683716 2 1.0 0 1814949
134 1 77 111 204.88766 21.02833134985284 0.001800481667572518 1199.3091 1 1.0 0.03700000047683716 2 1.0 0 1814949
135 1 88 123 30.4146 128.93228267171625 0.05807195655841179 1274.1775 1 1.0 0.03700000047683716 3 1.0 0 1814897
136 3 87 123 392.31512 128.9736547387802 0.0014574440495039355 1272.4113 1 1.0 0.03700000047683716 2 1.0 0 1814897
137 2 87 122 255.71442 129.0370766276973 0.007242175612375809 1271.8395 1 1.0 0.03700000047683716 2 1.0 0 1814897
138 1 87 121 264.9444 129.08803291007962 0.0001 1269.9875 1 1.0 0.03700000047683716 2 1.0 0 1814897
139 2 87 120 40.274784 129.1179043487745 0.25949362712453256 1269.9875 1 1.0 0.03700000047683716 2 1.0 0 1814897
140 1 86 120 264.69568 129.14775146362368 0.002060056622733857 1259.5365 1 1.0 0.03700000047683716 2 1.0 0 1814897
141 3 85 120 271.24835 129.2002036864095 0.01151450687906955 1258.9912 1 1.0 0.03700000047683716 2 1.0 0 1814897
142 2 84 120 92.42986 129.2357964257332 0.0028513490792009587 1255.8679 1 1.0 0.03700000047683716 2 1.0 0 1814897
143 3 85 120 26.374811 129.24742370184677 0.6141187331758895 1255.6044 1 1.0 0.03700000047683716 2 1.0 0 1814897
144 3 85 119 312.53296 129.28059220437328 0.0001 1239.4071 1 1.0 0.03700000047683716 2 1.0 0 1814897
145 1 85 118 95.44137 129.32052017936863 0.0001 1239.4071 1 1.0 0.03700000047683716 2 1.0 0 1814897
146 2 86 118 197.8228 129.34922162436033 0.0024213786632203364 1239.4071 1 1.0 0.03700000047683716 2 1.0 0 1814897
147 2 86 117 74.06432 129.37583086021658 0.03068226147764896 1238.9281 1 1.0 0.03700000047683716 2 1.0 0 1814897
148 2 85 117 257.1682 129.40824819077773 0.008285383643404302 1236.6556 1 1.0 0.03700000047683716 2 1.0 0 1814897
149 2 84 117 258.28107 129.4586946042572 0.011709778416452862 1234.5249 1 1.0 0.03700000047683716 2 1.0 0 1814897
150 2 83 117 250.58632 129.50849688980736 0.00729880026853525 1231.5005 1 1.0 0.03700000047683716 2 1.0 0 1814897
151 1 82 117 250.58632 129.55754609189154 0.04260320872221977 1229.6715 1 1.0 0.03700000047683716 2 1.0 0 1814897
152 1 81 117 275.26105 129.609010140526 0.007190440005348261 1218.9957 1 1.0 0.03700000047683716 2 1.0 0 1814897
153 3 80 117 148.39287 129.65047264434412 0.018703814623537606 1217.0165 1 1.0 0.03700000047683716 2 1.0 0 1814897
154 2 80 116 207.01283 129.6852558392516 0.005170860939648744 1214.241 1 1.0 0.03700000047683716 2 1.0 0 1814897
155 2 79 116 124.46593 129.71769725472086 0.03671546361596955 1213.1705 1 1.0 0.03700000047683716 2 1.0 0 1814897
156 2 79 115 304.127 129.7596431770517 0.009232929886849145 1208.6007 1 1.0 0.03700000047683716 2 1.0 0 1814897
157 2 78 114 277.96915 129.8166122997516 0.006577158263172624 1205.7927 1 1.0 0.03700000047683716 2 1.0 0 1814897
158 1 78 113 221.66402 129.86551078001003 0.004125291621317118 1203.9645 1 1.0 0.03700000047683716 2 1.0 0 1814897
159 2 77 113 68.13898 129.8938735309815 0.04957590947241508 1203.05 1 1.0 0.03700000047683716 2 1.0 0 1814897
160 1 77 112 281.94278 129.92813565081357 0.0012871939464216885 1199.672 1 1.0 0.03700000047683716 2 1.0 0 1814897
161 1 77 111 75.33216 129.96310168075757 0.0048969321963468065 1199.3091 1 1.0 0.03700000047683716 2 1.0 0 1814897
162 3 56 151 156.56496 3.413432846662468 0.013950785335925893 1288.019 1 1.0 0.03700000047683716 1 1.0 0 1815703
163 3 56 150 207.5703 3.721814479472527 0.021531791450723783 1285.8348 1 1.0 0.03700000047683716 2 1.0 0 1815703
164 3 57 150 55.430515 3.9445466006972527 0.27253601097862834 1281.3655 1 1.0 0.03700000047683716 2 1.0 0 1815703
165 3 57 149 295.95557 4.242131204371697 0.026529531427100708 1266.2587 1 1.0 0.03700000047683716 2 1.0 0 1815703
166 3 57 148 115.72352 4.590777126354778 0.038052459129227216 1258.4071 1 1.0 0.03700000047683716 2 1.0 0 1815703
167 3 58 148 178.4534 4.839911889829456 0.0357051427082163 1254.0035 1 1.0 0.03700000047683716 2 1.0 0 1815703
168 3 58 147 255.63432 5.2075353522077545 0.013427841557438614 1247.6318 1 1.0 0.03700000047683716 2 1.0 0 1815703
169 3 58 146 261.16013 5.645202170312896 0.024396288953976508 1244.1992 1 1.0 0.03700000047683716 2 1.0 0 1815703
170 3 58 145 251.14146 6.079064196829466 0.0039327273234323725 1237.8279 1 1.0 0.03700000047683716 2 1.0 0 1815703
171 3 59 145 29.542072 6.316771663058576 0.13304895989645 1236.8402 1 1.0 0.03700000047683716 2 1.0 0 1815703
172 3 59 144 273.16275 6.573128645454272 0.0005737908302281858 1232.9097 1 1.0 0.03700000047683716 2 1.0 0 1815703
173 3 59 143 276.7198 7.038817395914995 0.0001 1232.7529 1 1.0 0.03700000047683716 2 1.0 0 1815703
174 3 59 142 20.688528 7.290688727103537 0.0001 1232.7529 1 1.0 0.03700000047683716 2 1.0 0 1815703
175 2 60 142 279.7875 7.5451582004017395 0.012458883144196978 1232.7529 1 1.0 0.03700000047683716 2 1.0 0 1815703
176 3 60 141 166.94772 7.923492847881978 0.004104162968831431 1229.2671 1 1.0 0.03700000047683716 2 1.0 0 1815703
177 2 61 141 128.72612 8.173895358320319 0.0009151044991254943 1228.5819 1 1.0 0.03700000047683716 2 1.0 0 1815703
178 1 61 140 110.67103 8.376638108977208 0.015654900604741267 1228.4641 1 1.0 0.03700000047683716 2 1.0 0 1815703
179 3 60 140 175.69891 8.619161421618717 0.014934078497184967 1226.7316 1 1.0 0.03700000047683716 2 1.0 0 1815703
180 3 60 139 262.99936 8.99068912699055 0.011348853551587539 1224.1077 1 1.0 0.03700000047683716 2 1.0 0 1815703
181 3 60 138 262.2223 9.435492875649667 0.008585627000290951 1221.1229 1 1.0 0.03700000047683716 2 1.0 0 1815703
182 3 59 137 255.0682 9.873579415900487 0.005209812067970197 1218.8716 1 1.0 0.03700000047683716 2 1.0 0 1815703
183 3 59 136 250.13716 10.301431765625765 0.008202530972234532 1217.5427 1 1.0 0.03700000047683716 2 1.0 0 1815703
184 3 59 135 250.13716 10.725107983381365 0.010264388025881064 1215.491 1 1.0 0.03700000047683716 2 1.0 0 1815703
185 3 59 134 250.13716 11.148784201136966 0.0001 1212.9235 1 1.0 0.03700000047683716 2 1.0 0 1815703
186 2 59 133 48.140102 11.40139159677803 0.021196168923691083 1212.9235 1 1.0 0.03700000047683716 2 1.0 0 1815703
187 2 60 133 109.142975 11.534592797445793 0.002472879828497787 1211.9031 1 1.0 0.03700000047683716 2 1.0 0 1815703
188 2 59 133 92.929474 11.705725301541055 0.03462203208879276 1211.6332 1 1.0 0.03700000047683716 2 1.0 0 1815703
189 3 59 132 250.2737 11.996380613067826 0.0001 1208.4158 1 1.0 0.03700000047683716 2 1.0 0 1815703
190 2 59 131 265.6278 12.433291104272033 0.0006557835096412124 1208.4158 1 1.0 0.03700000047683716 2 1.0 0 1815703
191 1 59 130 271.65723 12.888311262124416 0.0001 1208.2416 1 1.0 0.03700000047683716 2 1.0 0 1815703
192 1 58 130 35.413795 13.148365314316614 0.007979736983215623 1208.2416 1 1.0 0.03700000047683716 2 1.0 0 1815703
193 1 58 129 301.14163 13.433390146300948 0.00014065939054961441 1207.959 1 1.0 0.03700000047683716 2 1.0 0 1815703
194 1 57 129 93.92906 13.767971137830365 0.0001 1207.9166 1 1.0 0.03700000047683716 2 1.0 0 1815703
195 1 57 128 270.43167 14.07654341598572 0.0001 1207.9166 1 1.0 0.03700000047683716 2 1.0 0 1815703
196 1 56 128 49.596172 14.347571444830184 0.011516352277253904 1207.9166 1 1.0 0.03700000047683716 2 1.0 0 1815703
197 1 56 127 262.97958 14.612287514234591 0.0007872521777374971 1207.3455 1 1.0 0.03700000047683716 2 1.0 0 1815703
198 1 56 126 278.01358 15.0704479380715 0.0008311791866233279 1207.1384 1 1.0 0.03700000047683716 2 1.0 0 1815703
199 1 56 125 212.17638 15.485583327061711 0.0001 1206.9073 1 1.0 0.03700000047683716 2 1.0 0 1815703
200 1 55 125 52.177258 15.709461051970514 0.03384599525294534 1206.9073 1 1.0 0.03700000047683716 2 1.0 0 1815703
201 1 55 124 343.97412 16.044956748313965 0.02136781558614483 1205.1414 1 1.0 0.03700000047683716 2 1.0 0 1815703
202 1 54 123 348.37534 16.631299901922112 0.008942178322698583 1197.7914 1 1.0 0.03700000047683716 2 1.0 0 1815703
203 1 53 122 275.42465 17.159588246194033 0.012569812129817736 1194.6761 1 1.0 0.03700000047683716 2 1.0 0 1815703
204 1 53 121 246.4165 17.60152961387542 0.004700184876580516 1191.2141 1 1.0 0.03700000047683716 2 1.0 0 1815703
205 1 52 121 54.35657 17.85624926638361 0.020124007938944713 1190.0559 1 1.0 0.03700000047683716 2 1.0 0 1815703
206 1 52 120 274.10364 18.13441877449496 0.005636714486182546 1188.962 1 1.0 0.03700000047683716 2 1.0 0 1815703
207 1 51 120 261.28415 18.587832823171166 0.00533395065196299 1187.417 1 1.0 0.03700000047683716 2 1.0 0 1815703
208 1 50 120 190.28307 18.97025883115323 0.007829104957494917 1186.0233 1 1.0 0.03700000047683716 2 1.0 0 1815703
209 1 50 121 144.06674 19.253415382690093 0.014251885123196828 1184.5336 1 1.0 0.03700000047683716 2 1.0 0 1815703
210 1 49 121 290.3789 19.621341747996187 0.006613042630184161 1182.4803 1 1.0 0.03700000047683716 2 1.0 0 1815703
211 1 48 121 325.08698 20.142571316872292 0.0017911372501161706 1180.56 1 1.0 0.03700000047683716 2 1.0 0 1815703
212 1 47 121 91.449936 20.495333100379007 0.012457988244467163 1179.9778 1 1.0 0.03700000047683716 2 1.0 0 1815703
213 1 47 120 251.9782 20.786177803770528 0.0038111517852238903 1178.8385 1 1.0 0.03700000047683716 2 1.0 0 1815703
214 1 47 119 254.18196 21.214838583835512 0.0025635624393199477 1177.8782 1 1.0 0.03700000047683716 2 1.0 0 1815703
215 1 47 118 253.48015 21.64477134943755 0.0010662123786462558 1177.2266 1 1.0 0.03700000047683716 2 1.0 0 1815703
216 1 47 117 208.3799 22.035914345430385 0.0008587924256675541 1176.9563 1 1.0 0.03700000047683716 2 1.0 0 1815703
217 1 48 117 90.1911 22.28877150676208 0.006742952349307128 1176.7773 1 1.0 0.03700000047683716 2 1.0 0 1815703
218 1 48 116 260.13586 22.58545841160598 0.006730538663643407 1176.1692 1 1.0 0.03700000047683716 2 1.0 0 1815703
219 1 48 115 257.65152 23.02396591456055 0.010147434625668845 1174.4183 1 1.0 0.03700000047683716 2 1.0 0 1815703
220 1 48 114 257.57278 23.460304922015663 0.01227040530701783 1171.8038 1 1.0 0.03700000047683716 2 1.0 0 1815703
221 1 49 113 250.56543 23.890641282508522 0.022715226109697208 1168.6433 1 1.0 0.03700000047683716 2 1.0 0 1815703
222 1 49 112 250.2139 24.314743425200135 0.0001 1162.9517 1 1.0 0.03700000047683716 2 1.0 0 1815703
223 1 48 111 28.26677 24.550585092097908 0.14850922352659204 1162.9517 1 1.0 0.03700000047683716 2 1.0 0 1815703
224 1 49 111 225.64514 24.765621773189338 0.001891819517063974 1158.7538 1 1.0 0.03700000047683716 2 1.0 0 1815703
225 1 49 110 196.4235 25.12306624987603 0.0012764889717163542 1158.3269 1 1.0 0.03700000047683716 2 1.0 0 1815703
226 1 49 110 54.65099 25.335699556474164 0.006922032001135803 1158.0762 1 1.0 0.03700000047683716 2 1.0 0 1815703
227 1 77 111 69.20077 131.75059182450195 0.020420090530802622 1198.9402 1 1.0 0.03700000047683716 3 1.0 0 1814859
228 1 76 111 281.92883 131.78409991137832 0.0003113145745013879 1197.5271 1 1.0 0.03700000047683716 2 1.0 0 1814859
229 1 75 111 120.62808 131.82251567725575 0.004238071758306451 1197.4393 1 1.0 0.03700000047683716 2 1.0 0 1814859
230 1 75 110 160.60129 131.84935322596277 0.01036753244556903 1196.9281 1 1.0 0.03700000047683716 2 1.0 0 1814859
231 1 74 110 293.03296 131.89264327069856 0.0001 1195.2631 1 1.0 0.03700000047683716 2 1.0 0 1814859
232 1 73 110 60.002937 131.92633327204376 0.02150366733399409 1195.2518 1 1.0 0.03700000047683716 2 1.0 0 1814859
233 1 73 109 252.65195 131.95616975240054 0.0044590470302874816 1193.9615 1 1.0 0.03700000047683716 2 1.0 0 1814859
234 1 72 109 143.83102 131.9940058767299 0.008159463447806147 1192.835 1 1.0 0.03700000047683716 2 1.0 0 1814859
235 1 72 108 226.01157 132.02929974892373 0.0031623234678833105 1191.6614 1 1.0 0.03700000047683716 2 1.0 0 1814859
236 1 71 108 105.76179 132.0609606874128 0.0001 1190.9467 1 1.0 0.03700000047683716 2 1.0 0 1814859
237 1 71 107 203.26826 132.09045123621192 0.009909477157374506 1190.9467 1 1.0 0.03700000047683716 2 1.0 0 1814859
238 1 70 107 250.23976 132.13372923578234 0.02703315600705939 1188.9324 1 1.0 0.03700000047683716 2 1.0 0 1814859
239 1 69 107 252.07051 132.18166442748083 0.012794426627661906 1182.1676 1 1.0 0.03700000047683716 2 1.0 0 1814859
240 1 68 107 117.45402 132.21692791883203 0.008302991640171477 1178.9425 1 1.0 0.03700000047683716 2 1.0 0 1814859
241 1 68 108 251.27484 132.2521155046731 0.0001 1177.9673 1 1.0 0.03700000047683716 2 1.0 0 1814859
242 1 67 108 75.03437 132.28325502962093 0.0001 1177.9673 1 1.0 0.03700000047683716 2 1.0 0 1814859
243 1 67 109 227.91328 132.312165150558 0.0001 1177.9673 1 1.0 0.03700000047683716 2 1.0 0 1814859
244 1 66 109 168.72263 132.35001585955567 0.0001 1177.9673 1 1.0 0.03700000047683716 2 1.0 0 1814859
245 1 66 110 248.34299 132.3898162078723 0.0001 1177.9673 1 1.0 0.03700000047683716 2 1.0 0 1814859
246 1 65 110 264.47354 132.43875396737712 0.0001 1177.9673 1 1.0 0.03700000047683716 2 1.0 0 1814859
247 1 64 110 166.56564 132.479887811022 0.00342834759032712 1177.9673 1 1.0 0.03700000047683716 2 1.0 0 1814859
248 1 64 109 254.87097 132.52010524357522 0.0012194053076220496 1177.3962 1 1.0 0.03700000047683716 2 1.0 0 1814859
249 1 64 108 160.92915 132.55978486065987 0.006636418207747994 1177.0854 1 1.0 0.03700000047683716 2 1.0 0 1814859
250 1 63 108 263.02283 132.60024235778545 0.0032770481783167176 1176.0175 1 1.0 0.03700000047683716 2 1.0 0 1814859
251 1 62 108 287.4891 132.6527773581646 0.0039017273391495494 1175.1555 1 1.0 0.03700000047683716 2 1.0 0 1814859
252 1 61 108 260.95694 132.70511525583785 0.0035958211851966023 1174.0338 1 1.0 0.03700000047683716 2 1.0 0 1814859
253 1 60 108 269.9351 132.75577792029975 0.002988276283959959 1173.0955 1 1.0 0.03700000047683716 2 1.0 0 1814859
254 1 59 108 95.30345 132.79063238858888 0.004571386852011278 1172.2888 1 1.0 0.03700000047683716 2 1.0 0 1814859
255 1 59 109 301.05112 132.8284563512619 0.004328908224895216 1171.8531 1 1.0 0.03700000047683716 2 1.0 0 1814859
256 1 58 109 262.76743 132.88226119630826 0.0029517919279361394 1170.5499 1 1.0 0.03700000047683716 2 1.0 0 1814859
257 1 57 109 258.18408 132.93197534476968 0.006430599079735457 1169.7743 1 1.0 0.03700000047683716 2 1.0 0 1814859
258 1 56 109 274.36435 132.98279606416742 0.005520128145990861 1168.114 1 1.0 0.03700000047683716 2 1.0 0 1814859
259 1 55 109 250.11192 133.03284645213856 0.008154064327280237 1166.5995 1 1.0 0.03700000047683716 2 1.0 0 1814859
260 1 54 109 246.03896 133.08019387704442 0.007854427408781308 1164.56 1 1.0 0.03700000047683716 2 1.0 0 1814859
261 1 53 110 257.3288 133.1282299033187 0.00786845585052448 1162.6276 1 1.0 0.03700000047683716 2 1.0 0 1814859
262 1 52 110 229.70383 133.17470709414985 0.00240841723756084 1160.6028 1 1.0 0.03700000047683716 2 1.0 0 1814859
263 1 52 109 69.75716 133.2032845634988 0.008970153808126468 1160.0496 1 1.0 0.03700000047683716 2 1.0 0 1814859
264 1 51 109 278.95218 133.23656165098382 0.003932300626702207 1159.4238 1 1.0 0.03700000047683716 2 1.0 0 1814859
265 1 50 109 263.94235 133.2883697477666 0.0001 1158.3269 1 1.0 0.03700000047683716 2 1.0 0 1814859
266 1 49 109 19.563787 133.31542444727395 0.01281614934651346 1158.3269 1 1.0 0.03700000047683716 2 1.0 0 1814859
267 1 49 110 93.83418 133.32624599158294 0.0001 1158.0762 1 1.0 0.03700000047683716 2 1.0 0 1814859