# File generated by Flopy version 3.8.2 on 11/13/2025 at 16:06:14.
BEGIN options
  TIME_UNITS  days
END options

BEGIN dimensions
  NPER  1
END dimensions

BEGIN perioddata
    5000.00000000  100       1.02000000
END perioddata

