# File generated by Flopy version 3.8.2 on 11/13/2025 at 14:58:21.
BEGIN options
END options

BEGIN continuous  FILEOUT  e14.gwf.obs.csv
  A  head  1 4 4
  B  head  1 14 14
END continuous  FILEOUT  e14.gwf.obs.csv

