# File generated by Flopy version 3.8.2 on 11/13/2025 at 16:06:14.
BEGIN options
  SAVE_FLOWS
  NEWTON
END options

BEGIN packages
  DIS6  e14.dis  dis
  OBS6  e14.gwf.obs  obs_0
  NPF6  e14.npf  npf
  STO6  e14.sto  sto
  IC6  e14.ic  ic
  CHD6  e14.chd  chd_0
  RCH6  e14.rcha  rcha_0
  EVT6  e14.evta  evta_0
  LAK6  e14.lak  lak_0
  OC6  e14.oc  oc
END packages

