# File generated by Flopy version 3.8.2 on 11/13/2025 at 16:06:14.
BEGIN options
END options

BEGIN dimensions
  MAXBOUND  170
END dimensions

BEGIN period  1
  1 1 1 160
  1 2 1 160
  1 3 1 160
  1 4 1 160
  1 5 1 160
  1 6 1 160
  1 7 1 160
  1 8 1 160
  1 9 1 160
  1 10 1 160
  1 11 1 160
  1 12 1 160
  1 13 1 160
  1 14 1 160
  1 15 1 160
  1 16 1 160
  1 17 1 160
  1 1 17 140
  1 2 17 140
  1 3 17 140
  1 4 17 140
  1 5 17 140
  1 6 17 140
  1 7 17 140
  1 8 17 140
  1 9 17 140
  1 10 17 140
  1 11 17 140
  1 12 17 140
  1 13 17 140
  1 14 17 140
  1 15 17 140
  1 16 17 140
  1 17 17 140
  2 1 1 160
  2 2 1 160
  2 3 1 160
  2 4 1 160
  2 5 1 160
  2 6 1 160
  2 7 1 160
  2 8 1 160
  2 9 1 160
  2 10 1 160
  2 11 1 160
  2 12 1 160
  2 13 1 160
  2 14 1 160
  2 15 1 160
  2 16 1 160
  2 17 1 160
  2 1 17 140
  2 2 17 140
  2 3 17 140
  2 4 17 140
  2 5 17 140
  2 6 17 140
  2 7 17 140
  2 8 17 140
  2 9 17 140
  2 10 17 140
  2 11 17 140
  2 12 17 140
  2 13 17 140
  2 14 17 140
  2 15 17 140
  2 16 17 140
  2 17 17 140
  3 1 1 160
  3 2 1 160
  3 3 1 160
  3 4 1 160
  3 5 1 160
  3 6 1 160
  3 7 1 160
  3 8 1 160
  3 9 1 160
  3 10 1 160
  3 11 1 160
  3 12 1 160
  3 13 1 160
  3 14 1 160
  3 15 1 160
  3 16 1 160
  3 17 1 160
  3 1 17 140
  3 2 17 140
  3 3 17 140
  3 4 17 140
  3 5 17 140
  3 6 17 140
  3 7 17 140
  3 8 17 140
  3 9 17 140
  3 10 17 140
  3 11 17 140
  3 12 17 140
  3 13 17 140
  3 14 17 140
  3 15 17 140
  3 16 17 140
  3 17 17 140
  4 1 1 160
  4 2 1 160
  4 3 1 160
  4 4 1 160
  4 5 1 160
  4 6 1 160
  4 7 1 160
  4 8 1 160
  4 9 1 160
  4 10 1 160
  4 11 1 160
  4 12 1 160
  4 13 1 160
  4 14 1 160
  4 15 1 160
  4 16 1 160
  4 17 1 160
  4 1 17 140
  4 2 17 140
  4 3 17 140
  4 4 17 140
  4 5 17 140
  4 6 17 140
  4 7 17 140
  4 8 17 140
  4 9 17 140
  4 10 17 140
  4 11 17 140
  4 12 17 140
  4 13 17 140
  4 14 17 140
  4 15 17 140
  4 16 17 140
  4 17 17 140
  5 1 1 160
  5 2 1 160
  5 3 1 160
  5 4 1 160
  5 5 1 160
  5 6 1 160
  5 7 1 160
  5 8 1 160
  5 9 1 160
  5 10 1 160
  5 11 1 160
  5 12 1 160
  5 13 1 160
  5 14 1 160
  5 15 1 160
  5 16 1 160
  5 17 1 160
  5 1 17 140
  5 2 17 140
  5 3 17 140
  5 4 17 140
  5 5 17 140
  5 6 17 140
  5 7 17 140
  5 8 17 140
  5 9 17 140
  5 10 17 140
  5 11 17 140
  5 12 17 140
  5 13 17 140
  5 14 17 140
  5 15 17 140
  5 16 17 140
  5 17 17 140
END period  1

