# File generated by Flopy version 3.8.2 on 11/13/2025 at 14:58:21.
BEGIN options
  BUDGET  FILEOUT  e14.cbc
  HEAD  FILEOUT  e14.hds
END options

BEGIN period  1
  SAVE  HEAD  LAST
  SAVE  BUDGET  LAST
END period  1

