# File generated by Flopy version 3.8.2 on 11/13/2025 at 14:58:21.
BEGIN options
  DIGITS  10
  PRINT_INPUT
END options

BEGIN continuous  FILEOUT  e14.lak.obs.csv
  stage  stage  1
END continuous  FILEOUT  e14.lak.obs.csv

