# File generated by Flopy version 3.8.2 on 11/13/2025 at 14:58:21.
BEGIN options
END options

BEGIN timing
  TDIS6  e14.tdis
END timing

BEGIN models
  gwf6  e14.nam  e14
END models

BEGIN exchanges
END exchanges

BEGIN solutiongroup  1
  ims6  e14.ims  e14
END solutiongroup  1

