# File generated by Flopy version 3.8.2 on 11/13/2025 at 14:57:50.
BEGIN options
  SAVE_FLOWS
  NEWTON
END options

BEGIN packages
  DIS6  e15.dis  dis
  OBS6  e15.gwf.obs  obs_0
  NPF6  e15.npf  npf
  STO6  e15.sto  sto
  IC6  e15.ic  ic
  CHD6  e15.chd  chd_0
  RCH6  e15.rcha  rcha_0
  EVT6  e15.evta  evta_0
  LAK6  e15.lak  lak-1
  SFR6  e15.sfr  sfr-1
  MVR6  e15.mvr  mvr
  OC6  e15.oc  oc
END packages

