# File generated by Flopy version 3.8.2 on 11/13/2025 at 15:37:36.
BEGIN options
  READASARRAYS
END options

BEGIN period  1
  recharge
    CONSTANT       0.01160000
END period  1

