# File generated by Flopy version 3.8.2 on 11/13/2025 at 15:37:36.
BEGIN options
END options

BEGIN dimensions
  MAXBOUND  270
END dimensions

BEGIN period  1
  1 1 1 160
  1 2 1 160
  1 3 1 160
  1 4 1 160
  1 5 1 160
  1 6 1 160
  1 7 1 160
  1 8 1 160
  1 9 1 160
  1 10 1 160
  1 11 1 160
  1 12 1 160
  1 13 1 160
  1 14 1 160
  1 15 1 160
  1 16 1 160
  1 17 1 160
  1 18 1 160
  1 19 1 160
  1 20 1 160
  1 21 1 160
  1 22 1 160
  1 23 1 160
  1 24 1 160
  1 25 1 160
  1 26 1 160
  1 27 1 160
  1 1 17 140
  1 2 17 140
  1 3 17 140
  1 4 17 140
  1 5 17 140
  1 6 17 140
  1 7 17 140
  1 8 17 140
  1 9 17 140
  1 10 17 140
  1 11 17 140
  1 12 17 140
  1 13 17 140
  1 14 17 140
  1 15 17 140
  1 16 17 140
  1 17 17 140
  1 18 17 140
  1 19 17 140
  1 20 17 140
  1 21 17 140
  1 22 17 140
  1 23 17 140
  1 24 17 140
  1 25 17 140
  1 26 17 140
  1 27 17 140
  2 1 1 160
  2 2 1 160
  2 3 1 160
  2 4 1 160
  2 5 1 160
  2 6 1 160
  2 7 1 160
  2 8 1 160
  2 9 1 160
  2 10 1 160
  2 11 1 160
  2 12 1 160
  2 13 1 160
  2 14 1 160
  2 15 1 160
  2 16 1 160
  2 17 1 160
  2 18 1 160
  2 19 1 160
  2 20 1 160
  2 21 1 160
  2 22 1 160
  2 23 1 160
  2 24 1 160
  2 25 1 160
  2 26 1 160
  2 27 1 160
  2 1 17 140
  2 2 17 140
  2 3 17 140
  2 4 17 140
  2 5 17 140
  2 6 17 140
  2 7 17 140
  2 8 17 140
  2 9 17 140
  2 10 17 140
  2 11 17 140
  2 12 17 140
  2 13 17 140
  2 14 17 140
  2 15 17 140
  2 16 17 140
  2 17 17 140
  2 18 17 140
  2 19 17 140
  2 20 17 140
  2 21 17 140
  2 22 17 140
  2 23 17 140
  2 24 17 140
  2 25 17 140
  2 26 17 140
  2 27 17 140
  3 1 1 160
  3 2 1 160
  3 3 1 160
  3 4 1 160
  3 5 1 160
  3 6 1 160
  3 7 1 160
  3 8 1 160
  3 9 1 160
  3 10 1 160
  3 11 1 160
  3 12 1 160
  3 13 1 160
  3 14 1 160
  3 15 1 160
  3 16 1 160
  3 17 1 160
  3 18 1 160
  3 19 1 160
  3 20 1 160
  3 21 1 160
  3 22 1 160
  3 23 1 160
  3 24 1 160
  3 25 1 160
  3 26 1 160
  3 27 1 160
  3 1 17 140
  3 2 17 140
  3 3 17 140
  3 4 17 140
  3 5 17 140
  3 6 17 140
  3 7 17 140
  3 8 17 140
  3 9 17 140
  3 10 17 140
  3 11 17 140
  3 12 17 140
  3 13 17 140
  3 14 17 140
  3 15 17 140
  3 16 17 140
  3 17 17 140
  3 18 17 140
  3 19 17 140
  3 20 17 140
  3 21 17 140
  3 22 17 140
  3 23 17 140
  3 24 17 140
  3 25 17 140
  3 26 17 140
  3 27 17 140
  4 1 1 160
  4 2 1 160
  4 3 1 160
  4 4 1 160
  4 5 1 160
  4 6 1 160
  4 7 1 160
  4 8 1 160
  4 9 1 160
  4 10 1 160
  4 11 1 160
  4 12 1 160
  4 13 1 160
  4 14 1 160
  4 15 1 160
  4 16 1 160
  4 17 1 160
  4 18 1 160
  4 19 1 160
  4 20 1 160
  4 21 1 160
  4 22 1 160
  4 23 1 160
  4 24 1 160
  4 25 1 160
  4 26 1 160
  4 27 1 160
  4 1 17 140
  4 2 17 140
  4 3 17 140
  4 4 17 140
  4 5 17 140
  4 6 17 140
  4 7 17 140
  4 8 17 140
  4 9 17 140
  4 10 17 140
  4 11 17 140
  4 12 17 140
  4 13 17 140
  4 14 17 140
  4 15 17 140
  4 16 17 140
  4 17 17 140
  4 18 17 140
  4 19 17 140
  4 20 17 140
  4 21 17 140
  4 22 17 140
  4 23 17 140
  4 24 17 140
  4 25 17 140
  4 26 17 140
  4 27 17 140
  5 1 1 160
  5 2 1 160
  5 3 1 160
  5 4 1 160
  5 5 1 160
  5 6 1 160
  5 7 1 160
  5 8 1 160
  5 9 1 160
  5 10 1 160
  5 11 1 160
  5 12 1 160
  5 13 1 160
  5 14 1 160
  5 15 1 160
  5 16 1 160
  5 17 1 160
  5 18 1 160
  5 19 1 160
  5 20 1 160
  5 21 1 160
  5 22 1 160
  5 23 1 160
  5 24 1 160
  5 25 1 160
  5 26 1 160
  5 27 1 160
  5 1 17 140
  5 2 17 140
  5 3 17 140
  5 4 17 140
  5 5 17 140
  5 6 17 140
  5 7 17 140
  5 8 17 140
  5 9 17 140
  5 10 17 140
  5 11 17 140
  5 12 17 140
  5 13 17 140
  5 14 17 140
  5 15 17 140
  5 16 17 140
  5 17 17 140
  5 18 17 140
  5 19 17 140
  5 20 17 140
  5 21 17 140
  5 22 17 140
  5 23 17 140
  5 24 17 140
  5 25 17 140
  5 26 17 140
  5 27 17 140
END period  1

