# File generated by Flopy version 3.8.2 on 11/13/2025 at 15:37:36.
BEGIN options
  BUDGET  FILEOUT  e15.cbc
  HEAD  FILEOUT  e15.hds
END options

BEGIN period  1
  SAVE  HEAD  LAST
  SAVE  BUDGET  LAST
END period  1

