# File generated by Flopy version 3.8.2 on 11/13/2025 at 14:57:50.
BEGIN options
END options

BEGIN griddata
  strt
    CONSTANT     115.00000000
END griddata

