# File generated by Flopy version 3.8.2 on 11/13/2025 at 14:57:50.
BEGIN options
  TIME_UNITS  days
END options

BEGIN dimensions
  NPER  1
END dimensions

BEGIN perioddata
    1500.00000000  200       1.00500000
END perioddata

