# File generated by Flopy version 3.8.2 on 11/13/2025 at 15:37:36.
BEGIN options
  SAVE_SPECIFIC_DISCHARGE
END options

BEGIN griddata
  icelltype
    CONSTANT  1
  k
    CONSTANT      30.00000000
  k33
    CONSTANT      30.00000000
END griddata

