# File generated by Flopy version 3.8.2 on 11/13/2025 at 14:57:50.
BEGIN options
  DIGITS  10
  PRINT_INPUT
END options

BEGIN continuous  FILEOUT  e15.lak.obs.csv
  lake1  stage  1
  lake2  stage  2
END continuous  FILEOUT  e15.lak.obs.csv

