# File generated by Flopy version 3.8.2 on 11/13/2025 at 14:57:50.
BEGIN options
END options

BEGIN timing
  TDIS6  e15.tdis
END timing

BEGIN models
  gwf6  e15.nam  e15
END models

BEGIN exchanges
END exchanges

BEGIN solutiongroup  1
  ims6  e15.ims  e15
END solutiongroup  1

