# File generated by Flopy version 3.9.1 on 07/16/2025 at 14:52:37.
BEGIN options
END options

BEGIN nonlinear
  OUTER_DVCLOSE  1.00000000E-08
  OUTER_MAXIMUM  100
END nonlinear

BEGIN linear
  INNER_MAXIMUM  25
  INNER_DVCLOSE  1.00000000E-09
  inner_rclose       0.00100000  strict
  LINEAR_ACCELERATION  bicgstab
END linear

