# File generated by Flopy version 3.9.1 on 07/17/2025 at 10:19:34.
BEGIN options
END options

BEGIN timing
  TDIS6  sim.tdis
END timing

BEGIN models
  gwf6  model.nam  model
END models

BEGIN exchanges
END exchanges

BEGIN solutiongroup  1
  ims6  sim.ims  model
END solutiongroup  1

