# File generated by Flopy version 3.9.1 on 07/17/2025 at 10:19:35.
BEGIN options
END options

BEGIN dimensions
  MAXBOUND  90
END dimensions

BEGIN period  1
  1 111 43 1.79000000E+00 80000 -2.10000000E-01
  1 112 43 1.77000000E+00 80000 -2.30000000E-01
  1 113 43 1.75000000E+00 80000 -2.50000000E-01
  1 114 43 1.73000000E+00 80000 -2.70000000E-01
  1 115 43 1.71000000E+00 80000 -2.90000000E-01
  1 116 43 1.69000000E+00 80000 -3.10000000E-01
  1 117 43 1.67000000E+00 80000 -3.30000000E-01
  1 118 43 1.65000000E+00 80000 -3.50000000E-01
  1 119 43 1.63000000E+00 80000 -3.70000000E-01
  1 120 43 1.61000000E+00 80000 -3.90000000E-01
  1 121 43 1.59000000E+00 80000 -4.10000000E-01
  1 122 43 1.57000000E+00 80000 -4.30000000E-01
  1 123 43 1.55000000E+00 80000 -4.50000000E-01
  1 124 43 1.53000000E+00 80000 -4.70000000E-01
  1 125 43 1.51000000E+00 80000 -4.90000000E-01
  1 126 43 1.49000000E+00 80000 -5.10000000E-01
  1 127 43 1.47000000E+00 80000 -5.30000000E-01
  1 128 43 1.45000000E+00 80000 -5.50000000E-01
  1 129 43 1.43000000E+00 80000 -5.70000000E-01
  1 130 43 1.41000000E+00 80000 -5.90000000E-01
  1 131 43 1.39000000E+00 80000 -6.10000000E-01
  1 132 43 1.37000000E+00 80000 -6.30000000E-01
  1 133 43 1.35000000E+00 80000 -6.50000000E-01
  1 134 43 1.33000000E+00 80000 -6.70000000E-01
  1 135 43 1.31000000E+00 80000 -6.90000000E-01
  1 136 43 1.29000000E+00 80000 -7.10000000E-01
  1 137 43 1.27000000E+00 80000 -7.30000000E-01
  1 138 43 1.25000000E+00 80000 -7.50000000E-01
  1 139 43 1.23000000E+00 80000 -7.70000000E-01
  1 140 43 1.21000000E+00 80000 -7.90000000E-01
  1 141 43 1.19000000E+00 80000 -8.10000000E-01
  1 142 43 1.17000000E+00 80000 -8.30000000E-01
  1 143 43 1.15000000E+00 80000 -8.50000000E-01
  1 144 43 1.13000000E+00 80000 -8.70000000E-01
  1 145 43 1.11000000E+00 80000 -8.90000000E-01
  1 146 43 1.09000000E+00 80000 -9.10000000E-01
  1 147 43 1.07000000E+00 80000 -9.30000000E-01
  1 148 43 1.05000000E+00 80000 -9.50000000E-01
  1 149 43 1.03000000E+00 80000 -9.70000000E-01
  1 150 43 1.01000000E+00 80000 -9.90000000E-01
  1 151 43 9.90000000E-01 80000 -1.01000000E+00
  1 152 43 9.70000000E-01 80000 -1.03000000E+00
  1 153 43 9.50000000E-01 80000 -1.05000000E+00
  1 154 43 9.30000000E-01 80000 -1.07000000E+00
  1 155 43 9.10000000E-01 80000 -1.09000000E+00
  1 156 43 8.90000000E-01 80000 -1.11000000E+00
  1 157 43 8.70000000E-01 80000 -1.13000000E+00
  1 158 43 8.50000000E-01 80000 -1.15000000E+00
  1 159 43 8.30000000E-01 80000 -1.17000000E+00
  1 160 43 8.10000000E-01 80000 -1.19000000E+00
  1 161 43 7.90000000E-01 80000 -1.21000000E+00
  1 162 43 7.70000000E-01 80000 -1.23000000E+00
  1 163 43 7.50000000E-01 80000 -1.25000000E+00
  1 164 43 7.30000000E-01 80000 -1.27000000E+00
  1 165 43 7.10000000E-01 80000 -1.29000000E+00
  1 166 43 6.90000000E-01 80000 -1.31000000E+00
  1 167 43 6.70000000E-01 80000 -1.33000000E+00
  1 168 43 6.50000000E-01 80000 -1.35000000E+00
  1 169 43 6.30000000E-01 80000 -1.37000000E+00
  1 170 43 6.10000000E-01 80000 -1.39000000E+00
  1 171 43 5.90000000E-01 80000 -1.41000000E+00
  1 172 43 5.70000000E-01 80000 -1.43000000E+00
  1 173 43 5.50000000E-01 80000 -1.45000000E+00
  1 174 43 5.30000000E-01 80000 -1.47000000E+00
  1 175 43 5.10000000E-01 80000 -1.49000000E+00
  1 176 43 4.90000000E-01 80000 -1.51000000E+00
  1 177 43 4.70000000E-01 80000 -1.53000000E+00
  1 178 43 4.50000000E-01 80000 -1.55000000E+00
  1 179 43 4.30000000E-01 80000 -1.57000000E+00
  1 180 43 4.10000000E-01 80000 -1.59000000E+00
  1 181 43 3.90000000E-01 80000 -1.61000000E+00
  1 182 43 3.70000000E-01 80000 -1.63000000E+00
  1 183 43 3.50000000E-01 80000 -1.65000000E+00
  1 184 43 3.30000000E-01 80000 -1.67000000E+00
  1 185 43 3.10000000E-01 80000 -1.69000000E+00
  1 186 43 2.90000000E-01 80000 -1.71000000E+00
  1 187 43 2.70000000E-01 80000 -1.73000000E+00
  1 188 43 2.50000000E-01 80000 -1.75000000E+00
  1 189 43 2.30000000E-01 80000 -1.77000000E+00
  1 190 43 2.10000000E-01 80000 -1.79000000E+00
  1 191 43 1.90000000E-01 80000 -1.81000000E+00
  1 192 43 1.70000000E-01 80000 -1.83000000E+00
  1 193 43 1.50000000E-01 80000 -1.85000000E+00
  1 194 43 1.30000000E-01 80000 -1.87000000E+00
  1 195 43 1.10000000E-01 80000 -1.89000000E+00
  1 196 43 9.00000000E-02 80000 -1.91000000E+00
  1 197 43 7.00000000E-02 80000 -1.93000000E+00
  1 198 43 5.00000000E-02 80000 -1.95000000E+00
  1 199 43 3.00000000E-02 80000 -1.97000000E+00
  1 200 43 1.00000000E-02 80000 -1.99000000E+00
END period  1

