# File generated by Flopy version 3.9.1 on 07/17/2025 at 09:36:46.
BEGIN options
END options

BEGIN dimensions
  MAXBOUND  1591
END dimensions

BEGIN period  1
  1 16 17 1.10000000E+01
  1 16 18 1.10000000E+01
  1 16 19 1.10000000E+01
  1 16 20 1.10000000E+01
  1 16 21 1.10000000E+01
  1 16 22 1.10000000E+01
  1 16 23 1.10000000E+01
  1 16 24 1.10000000E+01
  1 16 25 1.10000000E+01
  1 16 26 1.10000000E+01
  1 16 27 1.10000000E+01
  1 16 28 1.10000000E+01
  1 16 29 1.10000000E+01
  1 17 16 1.10000000E+01
  1 17 17 1.10000000E+01
  1 17 18 1.10000000E+01
  1 17 19 1.10000000E+01
  1 17 20 1.10000000E+01
  1 17 21 1.10000000E+01
  1 17 22 1.10000000E+01
  1 17 23 1.10000000E+01
  1 17 24 1.10000000E+01
  1 17 25 1.10000000E+01
  1 17 26 1.10000000E+01
  1 17 27 1.10000000E+01
  1 17 28 1.10000000E+01
  1 17 29 1.10000000E+01
  1 17 30 1.10000000E+01
  1 17 31 1.10000000E+01
  1 17 32 1.10000000E+01
  1 17 33 1.10000000E+01
  1 18 15 1.10000000E+01
  1 18 16 1.10000000E+01
  1 18 17 1.10000000E+01
  1 18 18 1.10000000E+01
  1 18 19 1.10000000E+01
  1 18 20 1.10000000E+01
  1 18 21 1.10000000E+01
  1 18 22 1.10000000E+01
  1 18 23 1.10000000E+01
  1 18 24 1.10000000E+01
  1 18 25 1.10000000E+01
  1 18 26 1.10000000E+01
  1 18 27 1.10000000E+01
  1 18 28 1.10000000E+01
  1 18 29 1.10000000E+01
  1 18 30 1.10000000E+01
  1 18 31 1.10000000E+01
  1 18 32 1.10000000E+01
  1 18 33 1.10000000E+01
  1 18 34 1.10000000E+01
  1 19 14 1.10000000E+01
  1 19 15 1.10000000E+01
  1 19 16 1.10000000E+01
  1 19 17 1.10000000E+01
  1 19 18 1.10000000E+01
  1 19 19 1.10000000E+01
  1 19 20 1.10000000E+01
  1 19 21 1.10000000E+01
  1 19 22 1.10000000E+01
  1 19 23 1.10000000E+01
  1 19 24 1.10000000E+01
  1 19 25 1.10000000E+01
  1 19 26 1.10000000E+01
  1 19 27 1.10000000E+01
  1 19 28 1.10000000E+01
  1 19 29 1.10000000E+01
  1 19 30 1.10000000E+01
  1 19 31 1.10000000E+01
  1 19 32 1.10000000E+01
  1 19 33 1.10000000E+01
  1 19 34 1.10000000E+01
  1 19 35 1.10000000E+01
  1 20 13 1.10000000E+01
  1 20 14 1.10000000E+01
  1 20 15 1.10000000E+01
  1 20 16 1.10000000E+01
  1 20 17 1.10000000E+01
  1 20 18 1.10000000E+01
  1 20 19 1.10000000E+01
  1 20 20 1.10000000E+01
  1 20 21 1.10000000E+01
  1 20 22 1.10000000E+01
  1 20 23 1.10000000E+01
  1 20 24 1.10000000E+01
  1 20 25 1.10000000E+01
  1 20 26 1.10000000E+01
  1 20 27 1.10000000E+01
  1 20 28 1.10000000E+01
  1 20 29 1.10000000E+01
  1 20 30 1.10000000E+01
  1 20 31 1.10000000E+01
  1 20 32 1.10000000E+01
  1 20 33 1.10000000E+01
  1 20 34 1.10000000E+01
  1 20 35 1.10000000E+01
  1 21 13 1.10000000E+01
  1 21 14 1.10000000E+01
  1 21 15 1.10000000E+01
  1 21 16 1.10000000E+01
  1 21 17 1.10000000E+01
  1 21 18 1.10000000E+01
  1 21 19 1.10000000E+01
  1 21 20 1.10000000E+01
  1 21 21 1.10000000E+01
  1 21 22 1.10000000E+01
  1 21 23 1.10000000E+01
  1 21 24 1.10000000E+01
  1 21 25 1.10000000E+01
  1 21 26 1.10000000E+01
  1 21 27 1.10000000E+01
  1 21 28 1.10000000E+01
  1 21 29 1.10000000E+01
  1 21 30 1.10000000E+01
  1 21 31 1.10000000E+01
  1 21 32 1.10000000E+01
  1 21 33 1.10000000E+01
  1 21 34 1.10000000E+01
  1 21 35 1.10000000E+01
  1 22 12 1.10000000E+01
  1 22 13 1.10000000E+01
  1 22 14 1.10000000E+01
  1 22 15 1.10000000E+01
  1 22 16 1.10000000E+01
  1 22 17 1.10000000E+01
  1 22 18 1.10000000E+01
  1 22 19 1.10000000E+01
  1 22 20 1.10000000E+01
  1 22 21 1.10000000E+01
  1 22 22 1.10000000E+01
  1 22 23 1.10000000E+01
  1 22 24 1.10000000E+01
  1 22 25 1.10000000E+01
  1 22 26 1.10000000E+01
  1 22 27 1.10000000E+01
  1 22 28 1.10000000E+01
  1 22 29 1.10000000E+01
  1 22 30 1.10000000E+01
  1 22 31 1.10000000E+01
  1 22 32 1.10000000E+01
  1 22 33 1.10000000E+01
  1 22 34 1.10000000E+01
  1 22 35 1.10000000E+01
  1 23 12 1.10000000E+01
  1 23 13 1.10000000E+01
  1 23 14 1.10000000E+01
  1 23 15 1.10000000E+01
  1 23 16 1.10000000E+01
  1 23 17 1.10000000E+01
  1 23 18 1.10000000E+01
  1 23 19 1.10000000E+01
  1 23 20 1.10000000E+01
  1 23 21 1.10000000E+01
  1 23 22 1.10000000E+01
  1 23 23 1.10000000E+01
  1 23 24 1.10000000E+01
  1 23 25 1.10000000E+01
  1 23 26 1.10000000E+01
  1 23 27 1.10000000E+01
  1 23 28 1.10000000E+01
  1 23 29 1.10000000E+01
  1 23 30 1.10000000E+01
  1 23 31 1.10000000E+01
  1 23 32 1.10000000E+01
  1 23 33 1.10000000E+01
  1 23 34 1.10000000E+01
  1 23 35 1.10000000E+01
  1 24 12 1.10000000E+01
  1 24 13 1.10000000E+01
  1 24 14 1.10000000E+01
  1 24 15 1.10000000E+01
  1 24 16 1.10000000E+01
  1 24 17 1.10000000E+01
  1 24 18 1.10000000E+01
  1 24 19 1.10000000E+01
  1 24 20 1.10000000E+01
  1 24 21 1.10000000E+01
  1 24 22 1.10000000E+01
  1 24 23 1.10000000E+01
  1 24 24 1.10000000E+01
  1 24 25 1.10000000E+01
  1 24 26 1.10000000E+01
  1 24 27 1.10000000E+01
  1 24 28 1.10000000E+01
  1 24 29 1.10000000E+01
  1 24 30 1.10000000E+01
  1 24 31 1.10000000E+01
  1 24 32 1.10000000E+01
  1 24 33 1.10000000E+01
  1 24 34 1.10000000E+01
  1 24 35 1.10000000E+01
  1 25 11 1.10000000E+01
  1 25 12 1.10000000E+01
  1 25 13 1.10000000E+01
  1 25 14 1.10000000E+01
  1 25 15 1.10000000E+01
  1 25 16 1.10000000E+01
  1 25 17 1.10000000E+01
  1 25 18 1.10000000E+01
  1 25 19 1.10000000E+01
  1 25 20 1.10000000E+01
  1 25 21 1.10000000E+01
  1 25 22 1.10000000E+01
  1 25 23 1.10000000E+01
  1 25 24 1.10000000E+01
  1 25 25 1.10000000E+01
  1 25 26 1.10000000E+01
  1 25 27 1.10000000E+01
  1 25 28 1.10000000E+01
  1 25 29 1.10000000E+01
  1 25 30 1.10000000E+01
  1 25 31 1.10000000E+01
  1 25 32 1.10000000E+01
  1 25 33 1.10000000E+01
  1 25 34 1.10000000E+01
  1 25 35 1.10000000E+01
  1 26 11 1.10000000E+01
  1 26 12 1.10000000E+01
  1 26 13 1.10000000E+01
  1 26 14 1.10000000E+01
  1 26 15 1.10000000E+01
  1 26 16 1.10000000E+01
  1 26 17 1.10000000E+01
  1 26 18 1.10000000E+01
  1 26 19 1.10000000E+01
  1 26 20 1.10000000E+01
  1 26 21 1.10000000E+01
  1 26 22 1.10000000E+01
  1 26 23 1.10000000E+01
  1 26 24 1.10000000E+01
  1 26 25 1.10000000E+01
  1 26 26 1.10000000E+01
  1 26 27 1.10000000E+01
  1 26 28 1.10000000E+01
  1 26 29 1.10000000E+01
  1 26 30 1.10000000E+01
  1 26 31 1.10000000E+01
  1 26 32 1.10000000E+01
  1 26 33 1.10000000E+01
  1 26 34 1.10000000E+01
  1 26 35 1.10000000E+01
  1 27 11 1.10000000E+01
  1 27 12 1.10000000E+01
  1 27 13 1.10000000E+01
  1 27 14 1.10000000E+01
  1 27 15 1.10000000E+01
  1 27 16 1.10000000E+01
  1 27 17 1.10000000E+01
  1 27 18 1.10000000E+01
  1 27 19 1.10000000E+01
  1 27 20 1.10000000E+01
  1 27 21 1.10000000E+01
  1 27 22 1.10000000E+01
  1 27 23 1.10000000E+01
  1 27 24 1.10000000E+01
  1 27 25 1.10000000E+01
  1 27 26 1.10000000E+01
  1 27 27 1.10000000E+01
  1 27 28 1.10000000E+01
  1 27 29 1.10000000E+01
  1 27 30 1.10000000E+01
  1 27 31 1.10000000E+01
  1 27 32 1.10000000E+01
  1 27 33 1.10000000E+01
  1 27 34 1.10000000E+01
  1 27 35 1.10000000E+01
  1 28 11 1.10000000E+01
  1 28 12 1.10000000E+01
  1 28 13 1.10000000E+01
  1 28 14 1.10000000E+01
  1 28 15 1.10000000E+01
  1 28 16 1.10000000E+01
  1 28 17 1.10000000E+01
  1 28 18 1.10000000E+01
  1 28 19 1.10000000E+01
  1 28 20 1.10000000E+01
  1 28 21 1.10000000E+01
  1 28 22 1.10000000E+01
  1 28 23 1.10000000E+01
  1 28 24 1.10000000E+01
  1 28 25 1.10000000E+01
  1 28 26 1.10000000E+01
  1 28 27 1.10000000E+01
  1 28 28 1.10000000E+01
  1 28 29 1.10000000E+01
  1 28 30 1.10000000E+01
  1 28 31 1.10000000E+01
  1 28 32 1.10000000E+01
  1 28 33 1.10000000E+01
  1 28 34 1.10000000E+01
  1 28 35 1.10000000E+01
  1 29 11 1.10000000E+01
  1 29 12 1.10000000E+01
  1 29 13 1.10000000E+01
  1 29 14 1.10000000E+01
  1 29 15 1.10000000E+01
  1 29 16 1.10000000E+01
  1 29 17 1.10000000E+01
  1 29 18 1.10000000E+01
  1 29 19 1.10000000E+01
  1 29 20 1.10000000E+01
  1 29 21 1.10000000E+01
  1 29 22 1.10000000E+01
  1 29 23 1.10000000E+01
  1 29 24 1.10000000E+01
  1 29 25 1.10000000E+01
  1 29 26 1.10000000E+01
  1 29 27 1.10000000E+01
  1 29 28 1.10000000E+01
  1 29 29 1.10000000E+01
  1 29 30 1.10000000E+01
  1 29 31 1.10000000E+01
  1 29 32 1.10000000E+01
  1 29 33 1.10000000E+01
  1 29 34 1.10000000E+01
  1 29 35 1.10000000E+01
  1 30 11 1.10000000E+01
  1 30 12 1.10000000E+01
  1 30 13 1.10000000E+01
  1 30 14 1.10000000E+01
  1 30 15 1.10000000E+01
  1 30 16 1.10000000E+01
  1 30 17 1.10000000E+01
  1 30 18 1.10000000E+01
  1 30 19 1.10000000E+01
  1 30 20 1.10000000E+01
  1 30 21 1.10000000E+01
  1 30 22 1.10000000E+01
  1 30 23 1.10000000E+01
  1 30 24 1.10000000E+01
  1 30 25 1.10000000E+01
  1 30 26 1.10000000E+01
  1 30 27 1.10000000E+01
  1 30 28 1.10000000E+01
  1 30 29 1.10000000E+01
  1 30 30 1.10000000E+01
  1 30 31 1.10000000E+01
  1 30 32 1.10000000E+01
  1 30 33 1.10000000E+01
  1 30 34 1.10000000E+01
  1 30 35 1.10000000E+01
  1 31 11 1.10000000E+01
  1 31 12 1.10000000E+01
  1 31 13 1.10000000E+01
  1 31 14 1.10000000E+01
  1 31 15 1.10000000E+01
  1 31 16 1.10000000E+01
  1 31 17 1.10000000E+01
  1 31 18 1.10000000E+01
  1 31 19 1.10000000E+01
  1 31 20 1.10000000E+01
  1 31 21 1.10000000E+01
  1 31 22 1.10000000E+01
  1 31 23 1.10000000E+01
  1 31 24 1.10000000E+01
  1 31 25 1.10000000E+01
  1 31 26 1.10000000E+01
  1 31 27 1.10000000E+01
  1 31 28 1.10000000E+01
  1 31 29 1.10000000E+01
  1 31 30 1.10000000E+01
  1 31 31 1.10000000E+01
  1 31 32 1.10000000E+01
  1 31 33 1.10000000E+01
  1 31 34 1.10000000E+01
  1 31 35 1.10000000E+01
  1 32 11 1.10000000E+01
  1 32 12 1.10000000E+01
  1 32 13 1.10000000E+01
  1 32 14 1.10000000E+01
  1 32 15 1.10000000E+01
  1 32 16 1.10000000E+01
  1 32 17 1.10000000E+01
  1 32 18 1.10000000E+01
  1 32 19 1.10000000E+01
  1 32 20 1.10000000E+01
  1 32 21 1.10000000E+01
  1 32 22 1.10000000E+01
  1 32 23 1.10000000E+01
  1 32 24 1.10000000E+01
  1 32 25 1.10000000E+01
  1 32 26 1.10000000E+01
  1 32 27 1.10000000E+01
  1 32 28 1.10000000E+01
  1 32 29 1.10000000E+01
  1 32 30 1.10000000E+01
  1 32 31 1.10000000E+01
  1 32 32 1.10000000E+01
  1 32 33 1.10000000E+01
  1 32 34 1.10000000E+01
  1 32 35 1.10000000E+01
  1 33 11 1.10000000E+01
  1 33 12 1.10000000E+01
  1 33 13 1.10000000E+01
  1 33 14 1.10000000E+01
  1 33 15 1.10000000E+01
  1 33 16 1.10000000E+01
  1 33 17 1.10000000E+01
  1 33 18 1.10000000E+01
  1 33 19 1.10000000E+01
  1 33 20 1.10000000E+01
  1 33 21 1.10000000E+01
  1 33 22 1.10000000E+01
  1 33 23 1.10000000E+01
  1 33 24 1.10000000E+01
  1 33 25 1.10000000E+01
  1 33 26 1.10000000E+01
  1 33 27 1.10000000E+01
  1 33 28 1.10000000E+01
  1 33 29 1.10000000E+01
  1 33 30 1.10000000E+01
  1 33 31 1.10000000E+01
  1 33 32 1.10000000E+01
  1 33 33 1.10000000E+01
  1 33 34 1.10000000E+01
  1 33 35 1.10000000E+01
  1 34 11 1.10000000E+01
  1 34 12 1.10000000E+01
  1 34 13 1.10000000E+01
  1 34 14 1.10000000E+01
  1 34 15 1.10000000E+01
  1 34 16 1.10000000E+01
  1 34 17 1.10000000E+01
  1 34 18 1.10000000E+01
  1 34 19 1.10000000E+01
  1 34 20 1.10000000E+01
  1 34 21 1.10000000E+01
  1 34 22 1.10000000E+01
  1 34 23 1.10000000E+01
  1 34 24 1.10000000E+01
  1 34 25 1.10000000E+01
  1 34 26 1.10000000E+01
  1 34 27 1.10000000E+01
  1 34 28 1.10000000E+01
  1 34 29 1.10000000E+01
  1 34 30 1.10000000E+01
  1 34 31 1.10000000E+01
  1 34 32 1.10000000E+01
  1 34 33 1.10000000E+01
  1 34 34 1.10000000E+01
  1 34 35 1.10000000E+01
  1 35 11 1.10000000E+01
  1 35 12 1.10000000E+01
  1 35 13 1.10000000E+01
  1 35 14 1.10000000E+01
  1 35 15 1.10000000E+01
  1 35 16 1.10000000E+01
  1 35 17 1.10000000E+01
  1 35 18 1.10000000E+01
  1 35 19 1.10000000E+01
  1 35 20 1.10000000E+01
  1 35 21 1.10000000E+01
  1 35 22 1.10000000E+01
  1 35 23 1.10000000E+01
  1 35 24 1.10000000E+01
  1 35 25 1.10000000E+01
  1 35 26 1.10000000E+01
  1 35 27 1.10000000E+01
  1 35 28 1.10000000E+01
  1 35 29 1.10000000E+01
  1 35 30 1.10000000E+01
  1 35 31 1.10000000E+01
  1 35 32 1.10000000E+01
  1 35 33 1.10000000E+01
  1 35 34 1.10000000E+01
  1 35 35 1.10000000E+01
  1 36 11 1.10000000E+01
  1 36 12 1.10000000E+01
  1 36 13 1.10000000E+01
  1 36 14 1.10000000E+01
  1 36 15 1.10000000E+01
  1 36 16 1.10000000E+01
  1 36 17 1.10000000E+01
  1 36 18 1.10000000E+01
  1 36 19 1.10000000E+01
  1 36 20 1.10000000E+01
  1 36 21 1.10000000E+01
  1 36 22 1.10000000E+01
  1 36 23 1.10000000E+01
  1 36 24 1.10000000E+01
  1 36 25 1.10000000E+01
  1 36 26 1.10000000E+01
  1 36 27 1.10000000E+01
  1 36 28 1.10000000E+01
  1 36 29 1.10000000E+01
  1 36 30 1.10000000E+01
  1 36 31 1.10000000E+01
  1 36 32 1.10000000E+01
  1 36 33 1.10000000E+01
  1 36 34 1.10000000E+01
  1 36 35 1.10000000E+01
  1 37 11 1.10000000E+01
  1 37 12 1.10000000E+01
  1 37 13 1.10000000E+01
  1 37 14 1.10000000E+01
  1 37 15 1.10000000E+01
  1 37 16 1.10000000E+01
  1 37 17 1.10000000E+01
  1 37 18 1.10000000E+01
  1 37 19 1.10000000E+01
  1 37 20 1.10000000E+01
  1 37 21 1.10000000E+01
  1 37 22 1.10000000E+01
  1 37 23 1.10000000E+01
  1 37 24 1.10000000E+01
  1 37 25 1.10000000E+01
  1 37 26 1.10000000E+01
  1 37 27 1.10000000E+01
  1 37 28 1.10000000E+01
  1 37 29 1.10000000E+01
  1 37 30 1.10000000E+01
  1 37 31 1.10000000E+01
  1 37 32 1.10000000E+01
  1 37 33 1.10000000E+01
  1 37 34 1.10000000E+01
  1 37 35 1.10000000E+01
  1 38 11 1.10000000E+01
  1 38 12 1.10000000E+01
  1 38 13 1.10000000E+01
  1 38 14 1.10000000E+01
  1 38 15 1.10000000E+01
  1 38 16 1.10000000E+01
  1 38 17 1.10000000E+01
  1 38 18 1.10000000E+01
  1 38 19 1.10000000E+01
  1 38 20 1.10000000E+01
  1 38 21 1.10000000E+01
  1 38 22 1.10000000E+01
  1 38 23 1.10000000E+01
  1 38 24 1.10000000E+01
  1 38 25 1.10000000E+01
  1 38 26 1.10000000E+01
  1 38 27 1.10000000E+01
  1 38 28 1.10000000E+01
  1 38 29 1.10000000E+01
  1 38 30 1.10000000E+01
  1 38 31 1.10000000E+01
  1 38 32 1.10000000E+01
  1 38 33 1.10000000E+01
  1 38 34 1.10000000E+01
  1 38 35 1.10000000E+01
  1 39 11 1.10000000E+01
  1 39 12 1.10000000E+01
  1 39 13 1.10000000E+01
  1 39 14 1.10000000E+01
  1 39 15 1.10000000E+01
  1 39 16 1.10000000E+01
  1 39 17 1.10000000E+01
  1 39 18 1.10000000E+01
  1 39 19 1.10000000E+01
  1 39 20 1.10000000E+01
  1 39 21 1.10000000E+01
  1 39 22 1.10000000E+01
  1 39 23 1.10000000E+01
  1 39 24 1.10000000E+01
  1 39 25 1.10000000E+01
  1 39 26 1.10000000E+01
  1 39 27 1.10000000E+01
  1 39 28 1.10000000E+01
  1 39 29 1.10000000E+01
  1 39 30 1.10000000E+01
  1 39 31 1.10000000E+01
  1 39 32 1.10000000E+01
  1 39 33 1.10000000E+01
  1 39 34 1.10000000E+01
  1 39 35 1.10000000E+01
  1 40 11 1.10000000E+01
  1 40 12 1.10000000E+01
  1 40 13 1.10000000E+01
  1 40 14 1.10000000E+01
  1 40 15 1.10000000E+01
  1 40 16 1.10000000E+01
  1 40 17 1.10000000E+01
  1 40 18 1.10000000E+01
  1 40 19 1.10000000E+01
  1 40 20 1.10000000E+01
  1 40 21 1.10000000E+01
  1 40 22 1.10000000E+01
  1 40 23 1.10000000E+01
  1 40 24 1.10000000E+01
  1 40 25 1.10000000E+01
  1 40 26 1.10000000E+01
  1 40 27 1.10000000E+01
  1 40 28 1.10000000E+01
  1 40 29 1.10000000E+01
  1 40 30 1.10000000E+01
  1 40 31 1.10000000E+01
  1 40 32 1.10000000E+01
  1 40 33 1.10000000E+01
  1 40 34 1.10000000E+01
  1 40 35 1.10000000E+01
  1 41 11 1.10000000E+01
  1 41 12 1.10000000E+01
  1 41 13 1.10000000E+01
  1 41 14 1.10000000E+01
  1 41 15 1.10000000E+01
  1 41 16 1.10000000E+01
  1 41 17 1.10000000E+01
  1 41 18 1.10000000E+01
  1 41 19 1.10000000E+01
  1 41 20 1.10000000E+01
  1 41 21 1.10000000E+01
  1 41 22 1.10000000E+01
  1 41 23 1.10000000E+01
  1 41 24 1.10000000E+01
  1 41 25 1.10000000E+01
  1 41 26 1.10000000E+01
  1 41 27 1.10000000E+01
  1 41 28 1.10000000E+01
  1 41 29 1.10000000E+01
  1 41 30 1.10000000E+01
  1 41 31 1.10000000E+01
  1 41 32 1.10000000E+01
  1 41 33 1.10000000E+01
  1 41 34 1.10000000E+01
  1 41 35 1.10000000E+01
  1 42 11 1.10000000E+01
  1 42 12 1.10000000E+01
  1 42 13 1.10000000E+01
  1 42 14 1.10000000E+01
  1 42 15 1.10000000E+01
  1 42 16 1.10000000E+01
  1 42 17 1.10000000E+01
  1 42 18 1.10000000E+01
  1 42 19 1.10000000E+01
  1 42 20 1.10000000E+01
  1 42 21 1.10000000E+01
  1 42 22 1.10000000E+01
  1 42 23 1.10000000E+01
  1 42 24 1.10000000E+01
  1 42 25 1.10000000E+01
  1 42 26 1.10000000E+01
  1 42 27 1.10000000E+01
  1 42 28 1.10000000E+01
  1 42 29 1.10000000E+01
  1 42 30 1.10000000E+01
  1 42 31 1.10000000E+01
  1 42 32 1.10000000E+01
  1 42 33 1.10000000E+01
  1 42 34 1.10000000E+01
  1 42 35 1.10000000E+01
  1 42 36 1.10000000E+01
  1 43 11 1.10000000E+01
  1 43 12 1.10000000E+01
  1 43 13 1.10000000E+01
  1 43 14 1.10000000E+01
  1 43 15 1.10000000E+01
  1 43 16 1.10000000E+01
  1 43 17 1.10000000E+01
  1 43 18 1.10000000E+01
  1 43 19 1.10000000E+01
  1 43 20 1.10000000E+01
  1 43 21 1.10000000E+01
  1 43 22 1.10000000E+01
  1 43 23 1.10000000E+01
  1 43 24 1.10000000E+01
  1 43 25 1.10000000E+01
  1 43 26 1.10000000E+01
  1 43 27 1.10000000E+01
  1 43 28 1.10000000E+01
  1 43 29 1.10000000E+01
  1 43 30 1.10000000E+01
  1 43 31 1.10000000E+01
  1 43 32 1.10000000E+01
  1 43 33 1.10000000E+01
  1 43 34 1.10000000E+01
  1 43 35 1.10000000E+01
  1 43 36 1.10000000E+01
  1 44 11 1.10000000E+01
  1 44 12 1.10000000E+01
  1 44 13 1.10000000E+01
  1 44 14 1.10000000E+01
  1 44 15 1.10000000E+01
  1 44 16 1.10000000E+01
  1 44 17 1.10000000E+01
  1 44 18 1.10000000E+01
  1 44 19 1.10000000E+01
  1 44 20 1.10000000E+01
  1 44 21 1.10000000E+01
  1 44 22 1.10000000E+01
  1 44 23 1.10000000E+01
  1 44 24 1.10000000E+01
  1 44 25 1.10000000E+01
  1 44 26 1.10000000E+01
  1 44 27 1.10000000E+01
  1 44 28 1.10000000E+01
  1 44 29 1.10000000E+01
  1 44 30 1.10000000E+01
  1 44 31 1.10000000E+01
  1 44 32 1.10000000E+01
  1 44 33 1.10000000E+01
  1 44 34 1.10000000E+01
  1 44 35 1.10000000E+01
  1 44 36 1.10000000E+01
  1 44 37 1.10000000E+01
  1 45 11 1.10000000E+01
  1 45 12 1.10000000E+01
  1 45 13 1.10000000E+01
  1 45 14 1.10000000E+01
  1 45 15 1.10000000E+01
  1 45 16 1.10000000E+01
  1 45 17 1.10000000E+01
  1 45 18 1.10000000E+01
  1 45 19 1.10000000E+01
  1 45 20 1.10000000E+01
  1 45 21 1.10000000E+01
  1 45 22 1.10000000E+01
  1 45 23 1.10000000E+01
  1 45 24 1.10000000E+01
  1 45 25 1.10000000E+01
  1 45 26 1.10000000E+01
  1 45 27 1.10000000E+01
  1 45 28 1.10000000E+01
  1 45 29 1.10000000E+01
  1 45 30 1.10000000E+01
  1 45 31 1.10000000E+01
  1 45 32 1.10000000E+01
  1 45 33 1.10000000E+01
  1 45 34 1.10000000E+01
  1 45 35 1.10000000E+01
  1 45 36 1.10000000E+01
  1 45 37 1.10000000E+01
  1 46 12 1.10000000E+01
  1 46 13 1.10000000E+01
  1 46 14 1.10000000E+01
  1 46 15 1.10000000E+01
  1 46 16 1.10000000E+01
  1 46 17 1.10000000E+01
  1 46 18 1.10000000E+01
  1 46 19 1.10000000E+01
  1 46 20 1.10000000E+01
  1 46 21 1.10000000E+01
  1 46 22 1.10000000E+01
  1 46 23 1.10000000E+01
  1 46 24 1.10000000E+01
  1 46 25 1.10000000E+01
  1 46 26 1.10000000E+01
  1 46 27 1.10000000E+01
  1 46 28 1.10000000E+01
  1 46 29 1.10000000E+01
  1 46 30 1.10000000E+01
  1 46 31 1.10000000E+01
  1 46 32 1.10000000E+01
  1 46 33 1.10000000E+01
  1 46 34 1.10000000E+01
  1 46 35 1.10000000E+01
  1 46 36 1.10000000E+01
  1 46 37 1.10000000E+01
  1 46 38 1.10000000E+01
  1 47 12 1.10000000E+01
  1 47 13 1.10000000E+01
  1 47 14 1.10000000E+01
  1 47 15 1.10000000E+01
  1 47 16 1.10000000E+01
  1 47 17 1.10000000E+01
  1 47 18 1.10000000E+01
  1 47 19 1.10000000E+01
  1 47 20 1.10000000E+01
  1 47 21 1.10000000E+01
  1 47 22 1.10000000E+01
  1 47 23 1.10000000E+01
  1 47 24 1.10000000E+01
  1 47 25 1.10000000E+01
  1 47 26 1.10000000E+01
  1 47 27 1.10000000E+01
  1 47 28 1.10000000E+01
  1 47 29 1.10000000E+01
  1 47 30 1.10000000E+01
  1 47 31 1.10000000E+01
  1 47 32 1.10000000E+01
  1 47 33 1.10000000E+01
  1 47 34 1.10000000E+01
  1 47 35 1.10000000E+01
  1 47 36 1.10000000E+01
  1 47 37 1.10000000E+01
  1 47 38 1.10000000E+01
  1 48 12 1.10000000E+01
  1 48 13 1.10000000E+01
  1 48 14 1.10000000E+01
  1 48 15 1.10000000E+01
  1 48 16 1.10000000E+01
  1 48 17 1.10000000E+01
  1 48 18 1.10000000E+01
  1 48 19 1.10000000E+01
  1 48 20 1.10000000E+01
  1 48 21 1.10000000E+01
  1 48 22 1.10000000E+01
  1 48 23 1.10000000E+01
  1 48 24 1.10000000E+01
  1 48 25 1.10000000E+01
  1 48 26 1.10000000E+01
  1 48 27 1.10000000E+01
  1 48 28 1.10000000E+01
  1 48 29 1.10000000E+01
  1 48 30 1.10000000E+01
  1 48 31 1.10000000E+01
  1 48 32 1.10000000E+01
  1 48 33 1.10000000E+01
  1 48 34 1.10000000E+01
  1 48 35 1.10000000E+01
  1 48 36 1.10000000E+01
  1 48 37 1.10000000E+01
  1 48 38 1.10000000E+01
  1 48 39 1.10000000E+01
  1 49 13 1.10000000E+01
  1 49 14 1.10000000E+01
  1 49 15 1.10000000E+01
  1 49 16 1.10000000E+01
  1 49 17 1.10000000E+01
  1 49 18 1.10000000E+01
  1 49 19 1.10000000E+01
  1 49 20 1.10000000E+01
  1 49 21 1.10000000E+01
  1 49 22 1.10000000E+01
  1 49 23 1.10000000E+01
  1 49 24 1.10000000E+01
  1 49 25 1.10000000E+01
  1 49 26 1.10000000E+01
  1 49 27 1.10000000E+01
  1 49 28 1.10000000E+01
  1 49 29 1.10000000E+01
  1 49 30 1.10000000E+01
  1 49 31 1.10000000E+01
  1 49 32 1.10000000E+01
  1 49 33 1.10000000E+01
  1 49 34 1.10000000E+01
  1 49 35 1.10000000E+01
  1 49 36 1.10000000E+01
  1 49 37 1.10000000E+01
  1 49 38 1.10000000E+01
  1 49 39 1.10000000E+01
  1 49 40 1.10000000E+01
  1 50 13 1.10000000E+01
  1 50 14 1.10000000E+01
  1 50 15 1.10000000E+01
  1 50 16 1.10000000E+01
  1 50 17 1.10000000E+01
  1 50 18 1.10000000E+01
  1 50 19 1.10000000E+01
  1 50 20 1.10000000E+01
  1 50 21 1.10000000E+01
  1 50 22 1.10000000E+01
  1 50 23 1.10000000E+01
  1 50 24 1.10000000E+01
  1 50 25 1.10000000E+01
  1 50 26 1.10000000E+01
  1 50 27 1.10000000E+01
  1 50 28 1.10000000E+01
  1 50 29 1.10000000E+01
  1 50 30 1.10000000E+01
  1 50 31 1.10000000E+01
  1 50 32 1.10000000E+01
  1 50 33 1.10000000E+01
  1 50 34 1.10000000E+01
  1 50 35 1.10000000E+01
  1 50 36 1.10000000E+01
  1 50 37 1.10000000E+01
  1 50 38 1.10000000E+01
  1 50 39 1.10000000E+01
  1 50 40 1.10000000E+01
  1 51 14 1.10000000E+01
  1 51 15 1.10000000E+01
  1 51 16 1.10000000E+01
  1 51 17 1.10000000E+01
  1 51 18 1.10000000E+01
  1 51 19 1.10000000E+01
  1 51 20 1.10000000E+01
  1 51 21 1.10000000E+01
  1 51 22 1.10000000E+01
  1 51 23 1.10000000E+01
  1 51 24 1.10000000E+01
  1 51 25 1.10000000E+01
  1 51 26 1.10000000E+01
  1 51 27 1.10000000E+01
  1 51 28 1.10000000E+01
  1 51 29 1.10000000E+01
  1 51 30 1.10000000E+01
  1 51 31 1.10000000E+01
  1 51 32 1.10000000E+01
  1 51 33 1.10000000E+01
  1 51 34 1.10000000E+01
  1 51 35 1.10000000E+01
  1 51 36 1.10000000E+01
  1 51 37 1.10000000E+01
  1 51 38 1.10000000E+01
  1 51 39 1.10000000E+01
  1 51 40 1.10000000E+01
  1 52 14 1.10000000E+01
  1 52 15 1.10000000E+01
  1 52 16 1.10000000E+01
  1 52 17 1.10000000E+01
  1 52 18 1.10000000E+01
  1 52 19 1.10000000E+01
  1 52 20 1.10000000E+01
  1 52 21 1.10000000E+01
  1 52 22 1.10000000E+01
  1 52 23 1.10000000E+01
  1 52 24 1.10000000E+01
  1 52 25 1.10000000E+01
  1 52 26 1.10000000E+01
  1 52 27 1.10000000E+01
  1 52 28 1.10000000E+01
  1 52 29 1.10000000E+01
  1 52 30 1.10000000E+01
  1 52 31 1.10000000E+01
  1 52 32 1.10000000E+01
  1 52 33 1.10000000E+01
  1 52 34 1.10000000E+01
  1 52 35 1.10000000E+01
  1 52 36 1.10000000E+01
  1 52 37 1.10000000E+01
  1 52 38 1.10000000E+01
  1 52 39 1.10000000E+01
  1 52 40 1.10000000E+01
  1 52 41 1.10000000E+01
  1 53 15 1.10000000E+01
  1 53 16 1.10000000E+01
  1 53 17 1.10000000E+01
  1 53 18 1.10000000E+01
  1 53 19 1.10000000E+01
  1 53 20 1.10000000E+01
  1 53 21 1.10000000E+01
  1 53 22 1.10000000E+01
  1 53 23 1.10000000E+01
  1 53 24 1.10000000E+01
  1 53 25 1.10000000E+01
  1 53 26 1.10000000E+01
  1 53 27 1.10000000E+01
  1 53 28 1.10000000E+01
  1 53 29 1.10000000E+01
  1 53 30 1.10000000E+01
  1 53 31 1.10000000E+01
  1 53 32 1.10000000E+01
  1 53 33 1.10000000E+01
  1 53 34 1.10000000E+01
  1 53 35 1.10000000E+01
  1 53 36 1.10000000E+01
  1 53 37 1.10000000E+01
  1 53 38 1.10000000E+01
  1 53 39 1.10000000E+01
  1 53 40 1.10000000E+01
  1 53 41 1.10000000E+01
  1 54 15 1.10000000E+01
  1 54 16 1.10000000E+01
  1 54 17 1.10000000E+01
  1 54 18 1.10000000E+01
  1 54 19 1.10000000E+01
  1 54 20 1.10000000E+01
  1 54 21 1.10000000E+01
  1 54 22 1.10000000E+01
  1 54 23 1.10000000E+01
  1 54 24 1.10000000E+01
  1 54 25 1.10000000E+01
  1 54 26 1.10000000E+01
  1 54 27 1.10000000E+01
  1 54 28 1.10000000E+01
  1 54 29 1.10000000E+01
  1 54 30 1.10000000E+01
  1 54 31 1.10000000E+01
  1 54 32 1.10000000E+01
  1 54 33 1.10000000E+01
  1 54 34 1.10000000E+01
  1 54 35 1.10000000E+01
  1 54 36 1.10000000E+01
  1 54 37 1.10000000E+01
  1 54 38 1.10000000E+01
  1 54 39 1.10000000E+01
  1 54 40 1.10000000E+01
  1 54 41 1.10000000E+01
  1 54 42 1.10000000E+01
  1 55 15 1.10000000E+01
  1 55 16 1.10000000E+01
  1 55 17 1.10000000E+01
  1 55 18 1.10000000E+01
  1 55 19 1.10000000E+01
  1 55 20 1.10000000E+01
  1 55 21 1.10000000E+01
  1 55 22 1.10000000E+01
  1 55 23 1.10000000E+01
  1 55 24 1.10000000E+01
  1 55 25 1.10000000E+01
  1 55 26 1.10000000E+01
  1 55 27 1.10000000E+01
  1 55 28 1.10000000E+01
  1 55 29 1.10000000E+01
  1 55 30 1.10000000E+01
  1 55 31 1.10000000E+01
  1 55 32 1.10000000E+01
  1 55 33 1.10000000E+01
  1 55 34 1.10000000E+01
  1 55 35 1.10000000E+01
  1 55 36 1.10000000E+01
  1 55 37 1.10000000E+01
  1 55 38 1.10000000E+01
  1 55 39 1.10000000E+01
  1 55 40 1.10000000E+01
  1 55 41 1.10000000E+01
  1 55 42 1.10000000E+01
  1 56 16 1.10000000E+01
  1 56 17 1.10000000E+01
  1 56 18 1.10000000E+01
  1 56 19 1.10000000E+01
  1 56 20 1.10000000E+01
  1 56 21 1.10000000E+01
  1 56 22 1.10000000E+01
  1 56 23 1.10000000E+01
  1 56 24 1.10000000E+01
  1 56 25 1.10000000E+01
  1 56 26 1.10000000E+01
  1 56 27 1.10000000E+01
  1 56 28 1.10000000E+01
  1 56 29 1.10000000E+01
  1 56 30 1.10000000E+01
  1 56 31 1.10000000E+01
  1 56 32 1.10000000E+01
  1 56 33 1.10000000E+01
  1 56 34 1.10000000E+01
  1 56 35 1.10000000E+01
  1 56 36 1.10000000E+01
  1 56 37 1.10000000E+01
  1 56 38 1.10000000E+01
  1 56 39 1.10000000E+01
  1 56 40 1.10000000E+01
  1 56 41 1.10000000E+01
  1 56 42 1.10000000E+01
  1 57 17 1.10000000E+01
  1 57 18 1.10000000E+01
  1 57 19 1.10000000E+01
  1 57 20 1.10000000E+01
  1 57 21 1.10000000E+01
  1 57 22 1.10000000E+01
  1 57 23 1.10000000E+01
  1 57 24 1.10000000E+01
  1 57 25 1.10000000E+01
  1 57 26 1.10000000E+01
  1 57 27 1.10000000E+01
  1 57 28 1.10000000E+01
  1 57 29 1.10000000E+01
  1 57 30 1.10000000E+01
  1 57 31 1.10000000E+01
  1 57 32 1.10000000E+01
  1 57 33 1.10000000E+01
  1 57 34 1.10000000E+01
  1 57 35 1.10000000E+01
  1 57 36 1.10000000E+01
  1 57 37 1.10000000E+01
  1 57 38 1.10000000E+01
  1 57 39 1.10000000E+01
  1 57 40 1.10000000E+01
  1 57 41 1.10000000E+01
  1 57 42 1.10000000E+01
  1 57 43 1.10000000E+01
  1 58 17 1.10000000E+01
  1 58 18 1.10000000E+01
  1 58 19 1.10000000E+01
  1 58 20 1.10000000E+01
  1 58 21 1.10000000E+01
  1 58 22 1.10000000E+01
  1 58 23 1.10000000E+01
  1 58 24 1.10000000E+01
  1 58 25 1.10000000E+01
  1 58 26 1.10000000E+01
  1 58 27 1.10000000E+01
  1 58 28 1.10000000E+01
  1 58 29 1.10000000E+01
  1 58 30 1.10000000E+01
  1 58 31 1.10000000E+01
  1 58 32 1.10000000E+01
  1 58 33 1.10000000E+01
  1 58 34 1.10000000E+01
  1 58 35 1.10000000E+01
  1 58 36 1.10000000E+01
  1 58 37 1.10000000E+01
  1 58 38 1.10000000E+01
  1 58 39 1.10000000E+01
  1 58 40 1.10000000E+01
  1 58 41 1.10000000E+01
  1 58 42 1.10000000E+01
  1 58 43 1.10000000E+01
  1 59 18 1.10000000E+01
  1 59 19 1.10000000E+01
  1 59 20 1.10000000E+01
  1 59 21 1.10000000E+01
  1 59 22 1.10000000E+01
  1 59 23 1.10000000E+01
  1 59 24 1.10000000E+01
  1 59 25 1.10000000E+01
  1 59 26 1.10000000E+01
  1 59 27 1.10000000E+01
  1 59 28 1.10000000E+01
  1 59 29 1.10000000E+01
  1 59 30 1.10000000E+01
  1 59 31 1.10000000E+01
  1 59 32 1.10000000E+01
  1 59 33 1.10000000E+01
  1 59 34 1.10000000E+01
  1 59 35 1.10000000E+01
  1 59 36 1.10000000E+01
  1 59 37 1.10000000E+01
  1 59 38 1.10000000E+01
  1 59 39 1.10000000E+01
  1 59 40 1.10000000E+01
  1 59 41 1.10000000E+01
  1 59 42 1.10000000E+01
  1 59 43 1.10000000E+01
  1 60 19 1.10000000E+01
  1 60 20 1.10000000E+01
  1 60 21 1.10000000E+01
  1 60 22 1.10000000E+01
  1 60 23 1.10000000E+01
  1 60 24 1.10000000E+01
  1 60 25 1.10000000E+01
  1 60 26 1.10000000E+01
  1 60 27 1.10000000E+01
  1 60 28 1.10000000E+01
  1 60 29 1.10000000E+01
  1 60 30 1.10000000E+01
  1 60 31 1.10000000E+01
  1 60 32 1.10000000E+01
  1 60 33 1.10000000E+01
  1 60 34 1.10000000E+01
  1 60 35 1.10000000E+01
  1 60 36 1.10000000E+01
  1 60 37 1.10000000E+01
  1 60 38 1.10000000E+01
  1 60 39 1.10000000E+01
  1 60 40 1.10000000E+01
  1 60 41 1.10000000E+01
  1 60 42 1.10000000E+01
  1 60 43 1.10000000E+01
  1 60 44 1.10000000E+01
  1 61 19 1.10000000E+01
  1 61 20 1.10000000E+01
  1 61 21 1.10000000E+01
  1 61 22 1.10000000E+01
  1 61 23 1.10000000E+01
  1 61 24 1.10000000E+01
  1 61 25 1.10000000E+01
  1 61 26 1.10000000E+01
  1 61 27 1.10000000E+01
  1 61 28 1.10000000E+01
  1 61 29 1.10000000E+01
  1 61 30 1.10000000E+01
  1 61 31 1.10000000E+01
  1 61 32 1.10000000E+01
  1 61 33 1.10000000E+01
  1 61 34 1.10000000E+01
  1 61 35 1.10000000E+01
  1 61 36 1.10000000E+01
  1 61 37 1.10000000E+01
  1 61 38 1.10000000E+01
  1 61 39 1.10000000E+01
  1 61 40 1.10000000E+01
  1 61 41 1.10000000E+01
  1 61 42 1.10000000E+01
  1 61 43 1.10000000E+01
  1 61 44 1.10000000E+01
  1 61 45 1.10000000E+01
  1 62 20 1.10000000E+01
  1 62 21 1.10000000E+01
  1 62 22 1.10000000E+01
  1 62 23 1.10000000E+01
  1 62 24 1.10000000E+01
  1 62 25 1.10000000E+01
  1 62 26 1.10000000E+01
  1 62 27 1.10000000E+01
  1 62 28 1.10000000E+01
  1 62 29 1.10000000E+01
  1 62 30 1.10000000E+01
  1 62 31 1.10000000E+01
  1 62 32 1.10000000E+01
  1 62 33 1.10000000E+01
  1 62 34 1.10000000E+01
  1 62 35 1.10000000E+01
  1 62 36 1.10000000E+01
  1 62 37 1.10000000E+01
  1 62 38 1.10000000E+01
  1 62 39 1.10000000E+01
  1 62 40 1.10000000E+01
  1 62 41 1.10000000E+01
  1 62 42 1.10000000E+01
  1 62 43 1.10000000E+01
  1 62 44 1.10000000E+01
  1 62 45 1.10000000E+01
  1 63 20 1.10000000E+01
  1 63 21 1.10000000E+01
  1 63 22 1.10000000E+01
  1 63 23 1.10000000E+01
  1 63 24 1.10000000E+01
  1 63 25 1.10000000E+01
  1 63 26 1.10000000E+01
  1 63 27 1.10000000E+01
  1 63 28 1.10000000E+01