# File generated by Flopy version 3.9.1 on 07/17/2025 at 10:19:35.
BEGIN options
END options

BEGIN griddata
  strt
    CONSTANT      11.00000000
END griddata

