# File generated by Flopy version 3.9.1 on 07/17/2025 at 10:19:34.
BEGIN options
  PRINT_OPTION  summary
END options

BEGIN nonlinear
  OUTER_MAXIMUM  50
END nonlinear

BEGIN linear
  INNER_MAXIMUM  500
  RELAXATION_FACTOR       0.97000000
END linear

