# File generated by Flopy version 3.9.1 on 07/16/2025 at 14:53:48.
BEGIN options
END options

BEGIN dimensions
  MAXBOUND  7
END dimensions

BEGIN period  1
  1 33 14 -1.84886753E-02
  1 4 6 -8.95896685E-03
  1 35 7 -1.33241105E-02
  1 24 7 -7.12811746E-04
  1 28 12 -1.76454949E-02
  1 27 12 -1.68256610E-02
  1 10 10 -8.40463789E-03
END period  1

