# File generated by Flopy version 3.10.0.dev3 on 07/28/2025 at 06:34:53.
BEGIN options
  READASARRAYS
END options

BEGIN period  1
  recharge
    CONSTANT  1.60000000E-09
END period  1

