# File generated by Flopy version 3.8.2 on 09/07/2025 at 07:21:27.
BEGIN options
END options

BEGIN dimensions
  MAXBOUND  1
END dimensions

