# File generated by Flopy version 3.8.2 on 09/07/2025 at 07:21:27.
BEGIN options
  NEWTON  UNDER_RELAXATION
END options

BEGIN packages
  oc6  Freyberg.oc  oc
  wel6  Freyberg.cf.wel  cf-1
  chd6  Freyberg.chd  chd_0
  rch6  Freyberg.rcha  rcha_0
  wel6  Freyberg.wel  wel-1
  riv6  Freyberg.riv  riv-1
  ic6  Freyberg.ic  ic
  npf6  Freyberg.npf  npf
  dis6  Freyberg.dis  dis
  WEL6  freyberg_0.wel  wel_0
END packages

