# File generated by Flopy version 3.8.2 on 09/07/2025 at 07:21:27.
BEGIN options
  READASARRAYS
END options

BEGIN period  1
  recharge
    CONSTANT  1.60000000E-09
END period  1

