# File generated by Flopy version 3.10.0.dev3 on 07/28/2025 at 06:34:53.
BEGIN options
  TIME_UNITS  seconds
END options

BEGIN dimensions
  NPER  1
END dimensions

BEGIN perioddata
       1.00000000  1       1.00000000
END perioddata

