# File generated by Flopy version 3.8.2 on 09/07/2025 at 07:21:27.
BEGIN options
  BUDGET  FILEOUT  Freyberg.bud
  HEAD  FILEOUT  Freyberg.hds
  HEAD  PRINT_FORMAT  COLUMNS  10  WIDTH  15  DIGITS  6  general
END options

BEGIN period  1
  SAVE  head  all
  SAVE  budget  all
  PRINT  head  all
  PRINT  budget  all
END period  1

