# File generated by Flopy version 3.10.0.dev3 on 07/28/2025 at 06:34:53.
BEGIN options
END options

BEGIN griddata
  strt
    CONSTANT      45.00000000
END griddata

