# File generated by Flopy version 3.10.0.dev3 on 07/25/2025 at 11:52:39.
BEGIN options
END options

BEGIN dimensions
  MAXBOUND  1
END dimensions

