# File generated by Flopy version 3.10.0.dev3 on 07/28/2025 at 06:34:53.
BEGIN options
END options

BEGIN dimensions
  MAXBOUND  7
END dimensions

BEGIN period  1
  1 27 4 -1.48056717E-02
  1 35 11 -1.68878792E-02
  1 35 8 -1.29460313E-02
  1 5 6 -1.09667781E-02
  1 10 1 -1.74794165E-02
  1 16 2 -1.53913138E-03
  1 39 14 -1.43688420E-02
END period  1

