# File generated by Flopy version 3.10.0.dev3 on 07/25/2025 at 11:52:39.
BEGIN options
END options

BEGIN dimensions
  MAXBOUND  8
END dimensions

BEGIN period  1
  1 37 11 -5.08595277E-03
  1 29 11 -5.28631396E-04
  1 15 10 -7.91616170E-04
  1 35 6 -1.52891030E-02
  1 15 12 -6.61317952E-03
  1 34 13 -5.21028882E-03
  1 11 16 -9.73244656E-03
  1 28 10 -1.11722577E-02
END period  1

