# File generated by Flopy version 3.10.0.dev3 on 07/25/2025 at 11:52:39.
BEGIN options
  NEWTON  UNDER_RELAXATION
END options

BEGIN packages
  dis6  Freyberg.dis  dis
  npf6  Freyberg.npf  npf
  ic6  Freyberg.ic  ic
  riv6  Freyberg.riv  riv-1
  wel6  Freyberg.wel  wel-1
  rch6  Freyberg.rcha  rcha_0
  chd6  Freyberg.chd  chd_0
  wel6  Freyberg.cf.wel  cf-1
  oc6  Freyberg.oc  oc
  WEL6  freyberg_0.wel  wel_0
END packages

