# File generated by Flopy version 3.8.2 on 09/07/2025 at 07:21:27.
BEGIN options
END options

BEGIN dimensions
  MAXBOUND  10
END dimensions

BEGIN period  1
  1 30 13 -8.71819113E-04
  1 29 5 -1.26561927E-02
  1 2 5 -1.64158244E-02
  1 6 2 -8.63945932E-03
  1 19 13 -1.65818415E-02
  1 4 2 -1.64526502E-02
  1 20 3 -1.46205040E-02
  1 31 5 -1.46661228E-02
  1 16 9 -3.47024427E-03
  1 3 11 -1.11913169E-03
END period  1

