# File generated by Flopy version 3.9.1 on 07/16/2025 at 14:53:48.
BEGIN options
END options

BEGIN nonlinear
  OUTER_DVCLOSE       0.01000000
  OUTER_MAXIMUM  1000
END nonlinear

BEGIN linear
  INNER_MAXIMUM  25
  INNER_DVCLOSE       0.00100000
  inner_rclose       0.10000000  strict
  LINEAR_ACCELERATION  bicgstab
END linear

