# File generated by Flopy version 3.10.0.dev3 on 07/25/2025 at 11:52:39.
BEGIN options
END options

BEGIN nonlinear
  OUTER_DVCLOSE       0.01000000
  OUTER_MAXIMUM  1000
END nonlinear

BEGIN linear
  INNER_MAXIMUM  25
  INNER_DVCLOSE       0.00100000
  inner_rclose       0.10000000  strict
  LINEAR_ACCELERATION  bicgstab
END linear

