# shellmound model version 0.post3.dev0+ge07a693
# File generated by Flopy version 3.10.0.dev1 on 11/19/2025 at 17:14:40.
# via modflow-setup version 0.6.0 at 2025-11-19 17:14:41
BEGIN options
  CONTINUE
END options

BEGIN timing
  TDIS6  mfsim.tdis
END timing

BEGIN models
  gwf6  shellmound.nam  shellmound
END models

BEGIN exchanges
END exchanges

BEGIN solutiongroup  1
  ims6  mfsim.ims  shellmound
END solutiongroup  1

