# shellmound model version 0.post3.dev0+ge07a693
# File generated by Flopy version 3.10.0.dev1 on 11/19/2025 at 17:14:40.
# via modflow-setup version 0.6.0 at 2025-11-19 17:14:41
BEGIN options
  BOUNDNAMES
  SAVE_FLOWS
  OBS6  FILEIN  shellmound.drn.obs
END options

BEGIN dimensions
  MAXBOUND  21
END dimensions

BEGIN period  1
    OPEN/CLOSE  '.\external\drn_000.dat'
END period  1

