# shellmound model version 0.post3.dev0+ge07a693
# File generated by Flopy version 3.10.0.dev1 on 11/19/2025 at 17:14:40.
# via modflow-setup version 0.6.0 at 2025-11-19 17:14:41
BEGIN options
  BOUNDNAMES
  SAVE_FLOWS
END options

BEGIN dimensions
  MAXBOUND  8
END dimensions

BEGIN period  1
    OPEN/CLOSE  '.\external\ghb_000.dat'
END period  1

BEGIN period  2
    OPEN/CLOSE  '.\external\ghb_001.dat'
END period  2

BEGIN period  3
    OPEN/CLOSE  '.\external\ghb_002.dat'
END period  3

BEGIN period  4
    OPEN/CLOSE  '.\external\ghb_003.dat'
END period  4

BEGIN period  5
    OPEN/CLOSE  '.\external\ghb_004.dat'
END period  5

BEGIN period  6
    OPEN/CLOSE  '.\external\ghb_005.dat'
END period  6

BEGIN period  7
    OPEN/CLOSE  '.\external\ghb_006.dat'
END period  7

BEGIN period  8
    OPEN/CLOSE  '.\external\ghb_007.dat'
END period  8

BEGIN period  9
    OPEN/CLOSE  '.\external\ghb_008.dat'
END period  9

BEGIN period  10
    OPEN/CLOSE  '.\external\ghb_009.dat'
END period  10

BEGIN period  11
    OPEN/CLOSE  '.\external\ghb_010.dat'
END period  11

BEGIN period  12
    OPEN/CLOSE  '.\external\ghb_011.dat'
END period  12

BEGIN period  13
    OPEN/CLOSE  '.\external\ghb_012.dat'
END period  13

BEGIN period  14
    OPEN/CLOSE  '.\external\ghb_013.dat'
END period  14

BEGIN period  15
    OPEN/CLOSE  '.\external\ghb_014.dat'
END period  15

BEGIN period  16
    OPEN/CLOSE  '.\external\ghb_015.dat'
END period  16

BEGIN period  17
    OPEN/CLOSE  '.\external\ghb_016.dat'
END period  17

BEGIN period  18
    OPEN/CLOSE  '.\external\ghb_017.dat'
END period  18

BEGIN period  19
    OPEN/CLOSE  '.\external\ghb_018.dat'
END period  19

