# File generated by Flopy version 3.8.2 on 11/16/2025 at 09:22:11.
BEGIN options
  SAVE_FLOWS
  NEWTON
END options

BEGIN packages
  DIS6  e11.dis  dis
  RCH6  e11.rcha  rcha_0
  NPF6  e11.npf  npf
  STO6  e11.sto  sto
  IC6  e11.ic  ic
  GHB6  e11.ghb  ghb_0
  WEL6  e11.wel  wel_0
  EVT6  e11.evta  evta_0
  SFR6  e11.sfr  sfr_0
  OC6  e11.oc  oc
END packages

