# File generated by Flopy version 3.8.2 on 11/16/2025 at 09:22:11.
BEGIN options
  BUDGET  FILEOUT  e11.cbc
  HEAD  FILEOUT  e11.hds
END options

BEGIN period  1
  SAVE  HEAD  LAST
  SAVE  BUDGET  LAST
END period  1

