# File generated by Flopy version 3.8.2 on 11/14/2025 at 10:25:57.
BEGIN options
END options

BEGIN dimensions
  MAXBOUND  10
END dimensions

BEGIN period  2
  1 6 4 -1.00000000E+01
  1 6 5 -1.00000000E+01
  1 7 4 -1.00000000E+01
  1 7 5 -1.00000000E+01
  1 8 4 -1.00000000E+01
  1 8 5 -1.00000000E+01
  1 9 4 -1.00000000E+01
  1 9 5 -1.00000000E+01
  1 10 4 -1.00000000E+01
  1 10 5 -1.00000000E+01
END period  2

BEGIN period  3

END period  3

