# File generated by Flopy version 3.8.2 on 11/16/2025 at 09:22:11.
BEGIN options
END options

BEGIN griddata
  strt
    CONSTANT    1050.00000000
END griddata

