# File generated by Flopy version 3.8.2 on 11/14/2025 at 10:25:57.
BEGIN options
END options

BEGIN griddata
  strt
    CONSTANT    1050.00000000
END griddata

