# File generated by Flopy version 3.8.2 on 11/16/2025 at 09:22:11.
BEGIN options
END options

BEGIN dimensions
  MAXBOUND  2
END dimensions

BEGIN period  1
  1 13 1 9.88000000E+02 3.80000000E-02
  1 14 9 1.04500000E+03 3.80000000E-02
END period  1

