# File generated by Flopy version 3.8.2 on 11/16/2025 at 09:22:11.
BEGIN options
END options

BEGIN timing
  TDIS6  e11.tdis
END timing

BEGIN models
  gwf6  e11.nam  e11
END models

BEGIN exchanges
END exchanges

BEGIN solutiongroup  1
  ims6  e11.ims  e11
END solutiongroup  1

