# File generated by Flopy version 3.9.1 on 07/15/2025 at 16:09:28.
BEGIN options
END options

BEGIN dimensions
  MAXBOUND  1
END dimensions

