# File generated by Flopy version 3.9.1 on 07/15/2025 at 17:52:53.
BEGIN options
END options

BEGIN timing
  TDIS6  Freyberg.tdis
END timing

BEGIN models
  gwf6  Freyberg.nam  Freyberg
END models

BEGIN exchanges
END exchanges

BEGIN solutiongroup  1
  ims6  Freyberg.ims  Freyberg
END solutiongroup  1

