# sm_tmr model version 0.post67.dev0+g98604a4
# File generated by Flopy version 3.10.0.dev1 on 11/19/2025 at 17:46:50.
# via modflow-setup version 0.6.0 at 2025-11-19 17:46:51
BEGIN options
  BUDGET  FILEOUT  sm_tmr.cbc
  HEAD  FILEOUT  sm_tmr.hds
END options

BEGIN period  1
  SAVE  head  last
  SAVE  budget  last
END period  1

