# sm_tmr model version 0.post67.dev0+g98604a4
# File generated by Flopy version 3.10.0.dev1 on 11/19/2025 at 17:46:50.
# via modflow-setup version 0.6.0 at 2025-11-19 17:46:51
BEGIN options
END options

BEGIN continuous  FILEOUT  sm_tmr.wel.obs.output.csv
  perimeter-flux  wel  perimeter-flux
  perimeter-fluxes  wel  perimeter-fluxes
  shellmound_0-10-4  wel  shellmound_0-10-4
  shellmound_0-10-5  wel  shellmound_0-10-5
  shellmound_0-12-4  wel  shellmound_0-12-4
  shellmound_0-12-5  wel  shellmound_0-12-5
  shellmound_0-14-4  wel  shellmound_0-14-4
  shellmound_0-14-5  wel  shellmound_0-14-5
  shellmound_0-14-7  wel  shellmound_0-14-7
  shellmound_0-15-4  wel  shellmound_0-15-4
  shellmound_0-15-5  wel  shellmound_0-15-5
  shellmound_0-15-7  wel  shellmound_0-15-7
  shellmound_0-17-4  wel  shellmound_0-17-4
  shellmound_0-17-5  wel  shellmound_0-17-5
  shellmound_0-17-7  wel  shellmound_0-17-7
  shellmound_0-17-8  wel  shellmound_0-17-8
  shellmound_0-18-4  wel  shellmound_0-18-4
  shellmound_0-18-5  wel  shellmound_0-18-5
  shellmound_0-18-7  wel  shellmound_0-18-7
  shellmound_0-18-8  wel  shellmound_0-18-8
  shellmound_0-20-10  wel  shellmound_0-20-10
  shellmound_0-20-4  wel  shellmound_0-20-4
  shellmound_0-20-5  wel  shellmound_0-20-5
  shellmound_0-20-7  wel  shellmound_0-20-7
  shellmound_0-20-8  wel  shellmound_0-20-8
  shellmound_0-22-10  wel  shellmound_0-22-10
  shellmound_0-22-4  wel  shellmound_0-22-4
  shellmound_0-22-5  wel  shellmound_0-22-5
  shellmound_0-22-7  wel  shellmound_0-22-7
  shellmound_0-22-8  wel  shellmound_0-22-8
  shellmound_0-23-10  wel  shellmound_0-23-10
  shellmound_0-23-12  wel  shellmound_0-23-12
  shellmound_0-23-4  wel  shellmound_0-23-4
  shellmound_0-23-5  wel  shellmound_0-23-5
  shellmound_0-23-7  wel  shellmound_0-23-7
  shellmound_0-23-8  wel  shellmound_0-23-8
  shellmound_0-25-10  wel  shellmound_0-25-10
  shellmound_0-25-12  wel  shellmound_0-25-12
  shellmound_0-25-4  wel  shellmound_0-25-4
  shellmound_0-25-5  wel  shellmound_0-25-5
  shellmound_0-25-7  wel  shellmound_0-25-7
  shellmound_0-25-8  wel  shellmound_0-25-8
  shellmound_0-26-10  wel  shellmound_0-26-10
  shellmound_0-26-12  wel  shellmound_0-26-12
  shellmound_0-7-5  wel  shellmound_0-7-5
  shellmound_0-9-4  wel  shellmound_0-9-4
  shellmound_0-9-5  wel  shellmound_0-9-5
  shellmound_12-10-13  wel  shellmound_12-10-13
  shellmound_12-10-17  wel  shellmound_12-10-17
  shellmound_12-10-18  wel  shellmound_12-10-18
  shellmound_12-10-21  wel  shellmound_12-10-21
  shellmound_12-10-25  wel  shellmound_12-10-25
  shellmound_12-10-26  wel  shellmound_12-10-26
  shellmound_12-10-28  wel  shellmound_12-10-28
  shellmound_12-12-10  wel  shellmound_12-12-10
  shellmound_12-12-13  wel  shellmound_12-12-13
  shellmound_12-12-15  wel  shellmound_12-12-15
  shellmound_12-12-21  wel  shellmound_12-12-21
  shellmound_12-12-23  wel  shellmound_12-12-23
  shellmound_12-12-25  wel  shellmound_12-12-25
  shellmound_12-12-26  wel  shellmound_12-12-26
  shellmound_12-12-28  wel  shellmound_12-12-28
  shellmound_12-12-29  wel  shellmound_12-12-29
  shellmound_12-12-31  wel  shellmound_12-12-31
  shellmound_12-12-8  wel  shellmound_12-12-8
  shellmound_12-14-17  wel  shellmound_12-14-17
  shellmound_12-14-18  wel  shellmound_12-14-18
  shellmound_12-14-20  wel  shellmound_12-14-20
  shellmound_12-14-23  wel  shellmound_12-14-23
  shellmound_12-14-25  wel  shellmound_12-14-25
  shellmound_12-14-28  wel  shellmound_12-14-28
  shellmound_12-14-29  wel  shellmound_12-14-29
  shellmound_12-15-12  wel  shellmound_12-15-12
  shellmound_12-15-17  wel  shellmound_12-15-17
  shellmound_12-15-18  wel  shellmound_12-15-18
  shellmound_12-15-20  wel  shellmound_12-15-20
  shellmound_12-15-23  wel  shellmound_12-15-23
  shellmound_12-15-25  wel  shellmound_12-15-25
  shellmound_12-15-26  wel  shellmound_12-15-26
  shellmound_12-15-28  wel  shellmound_12-15-28
  shellmound_12-15-29  wel  shellmound_12-15-29
  shellmound_12-15-31  wel  shellmound_12-15-31
  shellmound_12-17-18  wel  shellmound_12-17-18
  shellmound_12-17-20  wel  shellmound_12-17-20
  shellmound_12-17-21  wel  shellmound_12-17-21
  shellmound_12-17-23  wel  shellmound_12-17-23
  shellmound_12-17-28  wel  shellmound_12-17-28
  shellmound_12-17-29  wel  shellmound_12-17-29
  shellmound_12-17-31  wel  shellmound_12-17-31
  shellmound_12-18-15  wel  shellmound_12-18-15
  shellmound_12-18-17  wel  shellmound_12-18-17
  shellmound_12-18-18  wel  shellmound_12-18-18
  shellmound_12-18-20  wel  shellmound_12-18-20
  shellmound_12-18-21  wel  shellmound_12-18-21
  shellmound_12-18-23  wel  shellmound_12-18-23
  shellmound_12-18-25  wel  shellmound_12-18-25
  shellmound_12-18-26  wel  shellmound_12-18-26
  shellmound_12-18-28  wel  shellmound_12-18-28
  shellmound_12-18-29  wel  shellmound_12-18-29
  shellmound_12-18-33  wel  shellmound_12-18-33
  shellmound_12-20-20  wel  shellmound_12-20-20
  shellmound_12-20-28  wel  shellmound_12-20-28
  shellmound_12-20-29  wel  shellmound_12-20-29
  shellmound_12-20-31  wel  shellmound_12-20-31
  shellmound_12-20-33  wel  shellmound_12-20-33
  shellmound_12-22-20  wel  shellmound_12-22-20
  shellmound_12-22-21  wel  shellmound_12-22-21
  shellmound_12-22-23  wel  shellmound_12-22-23
  shellmound_12-22-25  wel  shellmound_12-22-25
  shellmound_12-22-26  wel  shellmound_12-22-26
  shellmound_12-22-28  wel  shellmound_12-22-28
  shellmound_12-22-29  wel  shellmound_12-22-29
  shellmound_12-22-31  wel  shellmound_12-22-31
  shellmound_12-22-33  wel  shellmound_12-22-33
  shellmound_12-23-17  wel  shellmound_12-23-17
  shellmound_12-23-18  wel  shellmound_12-23-18
  shellmound_12-23-20  wel  shellmound_12-23-20
  shellmound_12-23-21  wel  shellmound_12-23-21
  shellmound_12-23-23  wel  shellmound_12-23-23
  shellmound_12-23-25  wel  shellmound_12-23-25
  shellmound_12-23-28  wel  shellmound_12-23-28
  shellmound_12-23-29  wel  shellmound_12-23-29
  shellmound_12-23-31  wel  shellmound_12-23-31
  shellmound_12-25-13  wel  shellmound_12-25-13
  shellmound_12-25-15  wel  shellmound_12-25-15
  shellmound_12-25-18  wel  shellmound_12-25-18
  shellmound_12-25-20  wel  shellmound_12-25-20
  shellmound_12-25-21  wel  shellmound_12-25-21
  shellmound_12-25-23  wel  shellmound_12-25-23
  shellmound_12-25-25  wel  shellmound_12-25-25
  shellmound_12-25-26  wel  shellmound_12-25-26
  shellmound_12-25-28  wel  shellmound_12-25-28
  shellmound_12-25-29  wel  shellmound_12-25-29
  shellmound_12-25-31  wel  shellmound_12-25-31
  shellmound_12-25-33  wel  shellmound_12-25-33
  shellmound_12-26-13  wel  shellmound_12-26-13
  shellmound_12-26-14  wel  shellmound_12-26-14
  shellmound_12-26-15  wel  shellmound_12-26-15
  shellmound_12-26-18  wel  shellmound_12-26-18
  shellmound_12-26-21  wel  shellmound_12-26-21
  shellmound_12-26-23  wel  shellmound_12-26-23
  shellmound_12-26-25  wel  shellmound_12-26-25
  shellmound_12-26-31  wel  shellmound_12-26-31
  shellmound_12-26-33  wel  shellmound_12-26-33
  shellmound_12-4-10  wel  shellmound_12-4-10
  shellmound_12-4-12  wel  shellmound_12-4-12
  shellmound_12-4-15  wel  shellmound_12-4-15
  shellmound_12-4-23  wel  shellmound_12-4-23
  shellmound_12-4-8  wel  shellmound_12-4-8
  shellmound_12-6-12  wel  shellmound_12-6-12
  shellmound_12-6-13  wel  shellmound_12-6-13
  shellmound_12-6-15  wel  shellmound_12-6-15
  shellmound_12-6-18  wel  shellmound_12-6-18
  shellmound_12-6-21  wel  shellmound_12-6-21
  shellmound_12-6-23  wel  shellmound_12-6-23
  shellmound_12-6-25  wel  shellmound_12-6-25
  shellmound_12-7-15  wel  shellmound_12-7-15
  shellmound_12-7-17  wel  shellmound_12-7-17
  shellmound_12-7-18  wel  shellmound_12-7-18
  shellmound_12-7-23  wel  shellmound_12-7-23
  shellmound_12-7-26  wel  shellmound_12-7-26
  shellmound_12-7-7  wel  shellmound_12-7-7
  shellmound_12-7-8  wel  shellmound_12-7-8
  shellmound_12-9-12  wel  shellmound_12-9-12
  shellmound_12-9-13  wel  shellmound_12-9-13
  shellmound_12-9-15  wel  shellmound_12-9-15
  shellmound_12-9-17  wel  shellmound_12-9-17
  shellmound_12-9-18  wel  shellmound_12-9-18
  shellmound_12-9-21  wel  shellmound_12-9-21
  shellmound_12-9-23  wel  shellmound_12-9-23
  shellmound_12-9-25  wel  shellmound_12-9-25
  shellmound_12-9-26  wel  shellmound_12-9-26
  shellmound_12-9-28  wel  shellmound_12-9-28
  shellmound_12-9-8  wel  shellmound_12-9-8
  shellmound_2-10-3  wel  shellmound_2-10-3
  shellmound_2-10-4  wel  shellmound_2-10-4
  shellmound_2-11-3  wel  shellmound_2-11-3
  shellmound_2-11-4  wel  shellmound_2-11-4
  shellmound_2-13-3  wel  shellmound_2-13-3
  shellmound_2-13-4  wel  shellmound_2-13-4
  shellmound_2-13-6  wel  shellmound_2-13-6
  shellmound_2-14-3  wel  shellmound_2-14-3
  shellmound_2-14-4  wel  shellmound_2-14-4
  shellmound_2-14-6  wel  shellmound_2-14-6
  shellmound_2-16-4  wel  shellmound_2-16-4
  shellmound_2-16-6  wel  shellmound_2-16-6
  shellmound_2-18-4  wel  shellmound_2-18-4
  shellmound_2-18-6  wel  shellmound_2-18-6
  shellmound_2-18-8  wel  shellmound_2-18-8
  shellmound_2-18-9  wel  shellmound_2-18-9
  shellmound_2-19-4  wel  shellmound_2-19-4
  shellmound_2-19-6  wel  shellmound_2-19-6
  shellmound_2-19-8  wel  shellmound_2-19-8
  shellmound_2-19-9  wel  shellmound_2-19-9
  shellmound_2-21-4  wel  shellmound_2-21-4
  shellmound_2-21-6  wel  shellmound_2-21-6
  shellmound_2-21-8  wel  shellmound_2-21-8
  shellmound_2-21-9  wel  shellmound_2-21-9
  shellmound_2-22-4  wel  shellmound_2-22-4
  shellmound_2-22-6  wel  shellmound_2-22-6
  shellmound_2-22-8  wel  shellmound_2-22-8
  shellmound_2-22-9  wel  shellmound_2-22-9
  shellmound_2-24-11  wel  shellmound_2-24-11
  shellmound_2-24-12  wel  shellmound_2-24-12
  shellmound_2-24-4  wel  shellmound_2-24-4
  shellmound_2-24-6  wel  shellmound_2-24-6
  shellmound_2-24-8  wel  shellmound_2-24-8
  shellmound_2-24-9  wel  shellmound_2-24-9
  shellmound_2-26-11  wel  shellmound_2-26-11
  shellmound_2-26-12  wel  shellmound_2-26-12
  shellmound_2-26-9  wel  shellmound_2-26-9
  shellmound_2-8-4  wel  shellmound_2-8-4
  shellmound_3-10-10  wel  shellmound_3-10-10
  shellmound_3-10-11  wel  shellmound_3-10-11
  shellmound_3-10-12  wel  shellmound_3-10-12
  shellmound_3-10-14  wel  shellmound_3-10-14
  shellmound_3-10-15  wel  shellmound_3-10-15
  shellmound_3-10-16  wel  shellmound_3-10-16
  shellmound_3-10-17  wel  shellmound_3-10-17
  shellmound_3-10-19  wel  shellmound_3-10-19
  shellmound_3-10-20  wel  shellmound_3-10-20
  shellmound_3-10-21  wel  shellmound_3-10-21
  shellmound_3-10-22  wel  shellmound_3-10-22
  shellmound_3-10-24  wel  shellmound_3-10-24
  shellmound_3-10-25  wel  shellmound_3-10-25
  shellmound_3-10-27  wel  shellmound_3-10-27
  shellmound_3-10-29  wel  shellmound_3-10-29
  shellmound_3-10-30  wel  shellmound_3-10-30
  shellmound_3-10-32  wel  shellmound_3-10-32
  shellmound_3-10-6  wel  shellmound_3-10-6
  shellmound_3-10-7  wel  shellmound_3-10-7
  shellmound_3-10-8  wel  shellmound_3-10-8
  shellmound_3-10-9  wel  shellmound_3-10-9
  shellmound_3-11-11  wel  shellmound_3-11-11
  shellmound_3-11-12  wel  shellmound_3-11-12
  shellmound_3-11-14  wel  shellmound_3-11-14
  shellmound_3-11-16  wel  shellmound_3-11-16
  shellmound_3-11-17  wel  shellmound_3-11-17
  shellmound_3-11-19  wel  shellmound_3-11-19
  shellmound_3-11-21  wel  shellmound_3-11-21
  shellmound_3-11-24  wel  shellmound_3-11-24
  shellmound_3-11-25  wel  shellmound_3-11-25
  shellmound_3-11-27  wel  shellmound_3-11-27
  shellmound_3-11-29  wel  shellmound_3-11-29
  shellmound_3-11-30  wel  shellmound_3-11-30
  shellmound_3-11-32  wel  shellmound_3-11-32
  shellmound_3-11-6  wel  shellmound_3-11-6
  shellmound_3-11-8  wel  shellmound_3-11-8
  shellmound_3-11-9  wel  shellmound_3-11-9
  shellmound_3-12-12  wel  shellmound_3-12-12
  shellmound_3-12-17  wel  shellmound_3-12-17
  shellmound_3-12-18  wel  shellmound_3-12-18
  shellmound_3-12-20  wel  shellmound_3-12-20
  shellmound_3-12-7  wel  shellmound_3-12-7
  shellmound_3-13-11  wel  shellmound_3-13-11
  shellmound_3-13-12  wel  shellmound_3-13-12
  shellmound_3-13-14  wel  shellmound_3-13-14
  shellmound_3-13-16  wel  shellmound_3-13-16
  shellmound_3-13-17  wel  shellmound_3-13-17
  shellmound_3-13-19  wel  shellmound_3-13-19
  shellmound_3-13-21  wel  shellmound_3-13-21
  shellmound_3-13-22  wel  shellmound_3-13-22
  shellmound_3-13-24  wel  shellmound_3-13-24
  shellmound_3-13-25  wel  shellmound_3-13-25
  shellmound_3-13-27  wel  shellmound_3-13-27
  shellmound_3-13-29  wel  shellmound_3-13-29
  shellmound_3-13-8  wel  shellmound_3-13-8
  shellmound_3-13-9  wel  shellmound_3-13-9
  shellmound_3-14-10  wel  shellmound_3-14-10
  shellmound_3-14-11  wel  shellmound_3-14-11
  shellmound_3-14-12  wel  shellmound_3-14-12
  shellmound_3-14-14  wel  shellmound_3-14-14
  shellmound_3-14-15  wel  shellmound_3-14-15
  shellmound_3-14-16  wel  shellmound_3-14-16
  shellmound_3-14-17  wel  shellmound_3-14-17
  shellmound_3-14-19  wel  shellmound_3-14-19
  shellmound_3-14-21  wel  shellmound_3-14-21
  shellmound_3-14-22  wel  shellmound_3-14-22
  shellmound_3-14-24  wel  shellmound_3-14-24
  shellmound_3-14-25  wel  shellmound_3-14-25
  shellmound_3-14-27  wel  shellmound_3-14-27
  shellmound_3-14-29  wel  shellmound_3-14-29
  shellmound_3-14-30  wel  shellmound_3-14-30
  shellmound_3-14-32  wel  shellmound_3-14-32
  shellmound_3-14-8  wel  shellmound_3-14-8
  shellmound_3-14-9  wel  shellmound_3-14-9
  shellmound_3-15-10  wel  shellmound_3-15-10
  shellmound_3-15-13  wel  shellmound_3-15-13
  shellmound_3-15-15  wel  shellmound_3-15-15
  shellmound_3-15-21  wel  shellmound_3-15-21
  shellmound_3-15-8  wel  shellmound_3-15-8
  shellmound_3-16-11  wel  shellmound_3-16-11
  shellmound_3-16-12  wel  shellmound_3-16-12
  shellmound_3-16-14  wel  shellmound_3-16-14
  shellmound_3-16-16  wel  shellmound_3-16-16
  shellmound_3-16-17  wel  shellmound_3-16-17
  shellmound_3-16-19  wel  shellmound_3-16-19
  shellmound_3-16-21  wel  shellmound_3-16-21
  shellmound_3-16-22  wel  shellmound_3-16-22
  shellmound_3-16-24  wel  shellmound_3-16-24
  shellmound_3-16-25  wel  shellmound_3-16-25
  shellmound_3-16-27  wel  shellmound_3-16-27
  shellmound_3-16-29  wel  shellmound_3-16-29
  shellmound_3-16-30  wel  shellmound_3-16-30
  shellmound_3-16-32  wel  shellmound_3-16-32
  shellmound_3-16-8  wel  shellmound_3-16-8
  shellmound_3-16-9  wel  shellmound_3-16-9
  shellmound_3-17-10  wel  shellmound_3-17-10
  shellmound_3-17-12  wel  shellmound_3-17-12
  shellmound_3-17-13  wel  shellmound_3-17-13
  shellmound_3-17-15  wel  shellmound_3-17-15
  shellmound_3-17-17  wel  shellmound_3-17-17
  shellmound_3-18-10  wel  shellmound_3-18-10
  shellmound_3-18-11  wel  shellmound_3-18-11
  shellmound_3-18-12  wel  shellmound_3-18-12
  shellmound_3-18-13  wel  shellmound_3-18-13
  shellmound_3-18-14  wel  shellmound_3-18-14
  shellmound_3-18-16  wel  shellmound_3-18-16
  shellmound_3-18-17  wel  shellmound_3-18-17
  shellmound_3-18-19  wel  shellmound_3-18-19
  shellmound_3-18-21  wel  shellmound_3-18-21
  shellmound_3-18-22  wel  shellmound_3-18-22
  shellmound_3-18-24  wel  shellmound_3-18-24
  shellmound_3-18-25  wel  shellmound_3-18-25
  shellmound_3-18-27  wel  shellmound_3-18-27
  shellmound_3-18-29  wel  shellmound_3-18-29
  shellmound_3-18-30  wel  shellmound_3-18-30
  shellmound_3-18-31  wel  shellmound_3-18-31
  shellmound_3-18-32  wel  shellmound_3-18-32
  shellmound_3-18-33  wel  shellmound_3-18-33
  shellmound_3-19-11  wel  shellmound_3-19-11
  shellmound_3-19-12  wel  shellmound_3-19-12
  shellmound_3-19-14  wel  shellmound_3-19-14
  shellmound_3-19-16  wel  shellmound_3-19-16
  shellmound_3-19-17  wel  shellmound_3-19-17
  shellmound_3-19-19  wel  shellmound_3-19-19
  shellmound_3-19-21  wel  shellmound_3-19-21
  shellmound_3-19-24  wel  shellmound_3-19-24
  shellmound_3-19-25  wel  shellmound_3-19-25
  shellmound_3-19-27  wel  shellmound_3-19-27
  shellmound_3-19-29  wel  shellmound_3-19-29
  shellmound_3-19-30  wel  shellmound_3-19-30
  shellmound_3-19-32  wel  shellmound_3-19-32
  shellmound_3-19-33  wel  shellmound_3-19-33
  shellmound_3-20-12  wel  shellmound_3-20-12
  shellmound_3-20-13  wel  shellmound_3-20-13
  shellmound_3-20-15  wel  shellmound_3-20-15
  shellmound_3-20-17  wel  shellmound_3-20-17
  shellmound_3-20-18  wel  shellmound_3-20-18
  shellmound_3-21-11  wel  shellmound_3-21-11
  shellmound_3-21-12  wel  shellmound_3-21-12
  shellmound_3-21-14  wel  shellmound_3-21-14
  shellmound_3-21-16  wel  shellmound_3-21-16
  shellmound_3-21-17  wel  shellmound_3-21-17
  shellmound_3-21-19  wel  shellmound_3-21-19
  shellmound_3-21-21  wel  shellmound_3-21-21
  shellmound_3-21-22  wel  shellmound_3-21-22
  shellmound_3-21-24  wel  shellmound_3-21-24
  shellmound_3-21-25  wel  shellmound_3-21-25
  shellmound_3-21-27  wel  shellmound_3-21-27
  shellmound_3-21-29  wel  shellmound_3-21-29
  shellmound_3-21-30  wel  shellmound_3-21-30
  shellmound_3-21-32  wel  shellmound_3-21-32
  shellmound_3-22-11  wel  shellmound_3-22-11
  shellmound_3-22-12  wel  shellmound_3-22-12
  shellmound_3-22-13  wel  shellmound_3-22-13
  shellmound_3-22-14  wel  shellmound_3-22-14
  shellmound_3-22-15  wel  shellmound_3-22-15
  shellmound_3-22-16  wel  shellmound_3-22-16
  shellmound_3-22-17  wel  shellmound_3-22-17
  shellmound_3-22-18  wel  shellmound_3-22-18
  shellmound_3-22-19  wel  shellmound_3-22-19
  shellmound_3-22-21  wel  shellmound_3-22-21
  shellmound_3-22-22  wel  shellmound_3-22-22
  shellmound_3-22-24  wel  shellmound_3-22-24
  shellmound_3-22-25  wel  shellmound_3-22-25
  shellmound_3-22-27  wel  shellmound_3-22-27
  shellmound_3-22-29  wel  shellmound_3-22-29
  shellmound_3-22-30  wel  shellmound_3-22-30
  shellmound_3-22-32  wel  shellmound_3-22-32
  shellmound_3-22-33  wel  shellmound_3-22-33
  shellmound_3-23-13  wel  shellmound_3-23-13
  shellmound_3-23-15  wel  shellmound_3-23-15
  shellmound_3-23-26  wel  shellmound_3-23-26
  shellmound_3-23-33  wel  shellmound_3-23-33
  shellmound_3-24-14  wel  shellmound_3-24-14
  shellmound_3-24-16  wel  shellmound_3-24-16
  shellmound_3-24-17  wel  shellmound_3-24-17
  shellmound_3-24-19  wel  shellmound_3-24-19
  shellmound_3-24-21  wel  shellmound_3-24-21
  shellmound_3-24-22  wel  shellmound_3-24-22
  shellmound_3-24-24  wel  shellmound_3-24-24
  shellmound_3-24-25  wel  shellmound_3-24-25
  shellmound_3-24-27  wel  shellmound_3-24-27
  shellmound_3-24-29  wel  shellmound_3-24-29
  shellmound_3-24-30  wel  shellmound_3-24-30
  shellmound_3-24-32  wel  shellmound_3-24-32
  shellmound_3-24-33  wel  shellmound_3-24-33
  shellmound_3-25-17  wel  shellmound_3-25-17
  shellmound_3-26-16  wel  shellmound_3-26-16
  shellmound_3-26-17  wel  shellmound_3-26-17
  shellmound_3-26-19  wel  shellmound_3-26-19
  shellmound_3-26-20  wel  shellmound_3-26-20
  shellmound_3-26-21  wel  shellmound_3-26-21
  shellmound_3-26-22  wel  shellmound_3-26-22
  shellmound_3-26-24  wel  shellmound_3-26-24
  shellmound_3-26-25  wel  shellmound_3-26-25
  shellmound_3-26-26  wel  shellmound_3-26-26
  shellmound_3-26-27  wel  shellmound_3-26-27
  shellmound_3-26-28  wel  shellmound_3-26-28
  shellmound_3-26-29  wel  shellmound_3-26-29
  shellmound_3-26-30  wel  shellmound_3-26-30
  shellmound_3-26-32  wel  shellmound_3-26-32
  shellmound_3-26-33  wel  shellmound_3-26-33
  shellmound_3-3-11  wel  shellmound_3-3-11
  shellmound_3-3-12  wel  shellmound_3-3-12
  shellmound_3-3-14  wel  shellmound_3-3-14
  shellmound_3-3-24  wel  shellmound_3-3-24
  shellmound_3-3-25  wel  shellmound_3-3-25
  shellmound_3-4-25  wel  shellmound_3-4-25
  shellmound_3-4-26  wel  shellmound_3-4-26
  shellmound_3-5-11  wel  shellmound_3-5-11
  shellmound_3-5-12  wel  shellmound_3-5-12
  shellmound_3-5-14  wel  shellmound_3-5-14
  shellmound_3-5-16  wel  shellmound_3-5-16
  shellmound_3-5-17  wel  shellmound_3-5-17
  shellmound_3-5-22  wel  shellmound_3-5-22
  shellmound_3-5-24  wel  shellmound_3-5-24
  shellmound_3-5-25  wel  shellmound_3-5-25
  shellmound_3-5-27  wel  shellmound_3-5-27
  shellmound_3-5-32  wel  shellmound_3-5-32
  shellmound_3-5-8  wel  shellmound_3-5-8
  shellmound_3-5-9  wel  shellmound_3-5-9
  shellmound_3-6-10  wel  shellmound_3-6-10
  shellmound_3-6-11  wel  shellmound_3-6-11
  shellmound_3-6-12  wel  shellmound_3-6-12
  shellmound_3-6-14  wel  shellmound_3-6-14
  shellmound_3-6-16  wel  shellmound_3-6-16
  shellmound_3-6-17  wel  shellmound_3-6-17
  shellmound_3-6-21  wel  shellmound_3-6-21
  shellmound_3-6-22  wel  shellmound_3-6-22
  shellmound_3-6-24  wel  shellmound_3-6-24
  shellmound_3-6-25  wel  shellmound_3-6-25
  shellmound_3-6-27  wel  shellmound_3-6-27
  shellmound_3-6-29  wel  shellmound_3-6-29
  shellmound_3-6-30  wel  shellmound_3-6-30
  shellmound_3-6-32  wel  shellmound_3-6-32
  shellmound_3-6-6  wel  shellmound_3-6-6
  shellmound_3-6-7  wel  shellmound_3-6-7
  shellmound_3-6-8  wel  shellmound_3-6-8
  shellmound_3-6-9  wel  shellmound_3-6-9
  shellmound_3-7-10  wel  shellmound_3-7-10
  shellmound_3-7-12  wel  shellmound_3-7-12
  shellmound_3-7-13  wel  shellmound_3-7-13
  shellmound_3-8-11  wel  shellmound_3-8-11
  shellmound_3-8-12  wel  shellmound_3-8-12
  shellmound_3-8-14  wel  shellmound_3-8-14
  shellmound_3-8-16  wel  shellmound_3-8-16
  shellmound_3-8-17  wel  shellmound_3-8-17
  shellmound_3-8-19  wel  shellmound_3-8-19
  shellmound_3-8-21  wel  shellmound_3-8-21
  shellmound_3-8-22  wel  shellmound_3-8-22
  shellmound_3-8-24  wel  shellmound_3-8-24
  shellmound_3-8-25  wel  shellmound_3-8-25
  shellmound_3-8-27  wel  shellmound_3-8-27
  shellmound_3-8-29  wel  shellmound_3-8-29
  shellmound_3-8-30  wel  shellmound_3-8-30
  shellmound_3-8-32  wel  shellmound_3-8-32
  shellmound_3-8-6  wel  shellmound_3-8-6
  shellmound_3-8-8  wel  shellmound_3-8-8
  shellmound_3-8-9  wel  shellmound_3-8-9
  shellmound_3-9-10  wel  shellmound_3-9-10
  shellmound_3-9-20  wel  shellmound_3-9-20
  shellmound_3-9-7  wel  shellmound_3-9-7
  shellmound_7-14-26  wel  shellmound_7-14-26
  shellmound_7-14-31  wel  shellmound_7-14-31
  shellmound_7-6-29  wel  shellmound_7-6-29
  shellmound_7-7-29  wel  shellmound_7-7-29
  shellmound_8-11-22  wel  shellmound_8-11-22
  shellmound_8-11-29  wel  shellmound_8-11-29
  shellmound_8-13-30  wel  shellmound_8-13-30
  shellmound_8-13-32  wel  shellmound_8-13-32
  shellmound_8-14-12  wel  shellmound_8-14-12
  shellmound_8-14-13  wel  shellmound_8-14-13
  shellmound_8-19-22  wel  shellmound_8-19-22
  shellmound_8-21-33  wel  shellmound_8-21-33
  shellmound_8-22-12  wel  shellmound_8-22-12
  shellmound_8-6-8  wel  shellmound_8-6-8
  shellmound_9-11-22  wel  shellmound_9-11-22
  shellmound_9-14-12  wel  shellmound_9-14-12
  shellmound_9-14-19  wel  shellmound_9-14-19
  shellmound_9-21-12  wel  shellmound_9-21-12
  shellmound_9-26-16  wel  shellmound_9-26-16
  shellmound_9-6-8  wel  shellmound_9-6-8
  shellmound_9-8-27  wel  shellmound_9-8-27
END continuous  FILEOUT  sm_tmr.wel.obs.output.csv

