# File generated by Flopy version 3.8.2 on 11/12/2025 at 08:12:54.
BEGIN options
  TIME_UNITS  seconds
END options

BEGIN dimensions
  NPER  24
END dimensions

BEGIN perioddata
  2.62800000E+06  1       1.00000000
  2.62800000E+06  15       1.00000000
  2.62800000E+06  15       1.00000000
  2.62800000E+06  15       1.00000000
  2.62800000E+06  15       1.00000000
  2.62800000E+06  15       1.00000000
  2.62800000E+06  15       1.00000000
  2.62800000E+06  15       1.00000000
  2.62800000E+06  15       1.00000000
  2.62800000E+06  15       1.00000000
  2.62800000E+06  15       1.00000000
  2.62800000E+06  15       1.00000000
  2.62800000E+06  15       1.00000000
  2.62800000E+06  15       1.00000000
  2.62800000E+06  15       1.00000000
  2.62800000E+06  15       1.00000000
  2.62800000E+06  15       1.00000000
  2.62800000E+06  15       1.00000000
  2.62800000E+06  15       1.00000000
  2.62800000E+06  15       1.00000000
  2.62800000E+06  15       1.00000000
  2.62800000E+06  15       1.00000000
  2.62800000E+06  15       1.00000000
  2.62800000E+06  15       1.00000000
END perioddata

