# File generated by Flopy version 3.8.2 on 11/12/2025 at 08:12:54.
BEGIN options
  BUDGET  FILEOUT  e13.cbc
  HEAD  FILEOUT  e13.hds
END options

BEGIN period  1
  SAVE  HEAD  LAST
  SAVE  BUDGET  LAST
END period  1

