# File generated by Flopy version 3.8.2 on 11/13/2025 at 07:52:39.
BEGIN options
  SAVE_FLOWS
  NEWTON
END options

BEGIN packages
  DIS6  e13.dis  dis
  NPF6  e13.npf  npf
  IC6  e13.ic  ic
  STO6  e13.sto  sto
  GHB6  e13.ghb  ghb_0
  WEL6  e13.wel  wel-1
  SFR6  e13.sfr  sfr-1
  LAK6  e13.lak  lak-1
  UZF6  e13.uzf  uzf-1
  MVR6  e13.mvr  mvr-1
  OC6  e13.oc  oc
END packages

