# File generated by Flopy version 3.8.2 on 11/13/2025 at 07:52:39.
BEGIN options
  BUDGET  FILEOUT  e13.cbc
  HEAD  FILEOUT  e13.hds
END options

BEGIN period  1
  SAVE  HEAD  LAST
  SAVE  BUDGET  LAST
END period  1

