# File generated by Flopy version 3.8.2 on 11/12/2025 at 08:12:54.
BEGIN options
END options

BEGIN timing
  TDIS6  e13.tdis
END timing

BEGIN models
  gwf6  e13.nam  e13
END models

BEGIN exchanges
END exchanges

BEGIN solutiongroup  1
  ims6  e13.ims  e13
END solutiongroup  1

