# shellmound model version 0.post69.dev0+g5e43358
# File generated by Flopy version 3.10.0.dev1 on 11/21/2025 at 16:36:04.
# via modflow-setup version 0.6.0 at 2025-11-21 16:36:05
BEGIN options
  BUDGET  FILEOUT  shellmound.cbc
  HEAD  FILEOUT  shellmound.hds
END options

BEGIN period  1
  SAVE  head  last
  SAVE  budget  last
END period  1

