# shellmound model version 0.post69.dev0+g5e43358
# File created by modflow-setup version 0.6.0 at 2025-11-21 16:36:05
# MODFLOW-6 SFR input; created by SFRmaker v. 0.11.3.post37+gad8cb97

BEGIN Options
  save_flows
  mover
  budget fileout shellmound.sfr.out.bin
  stage fileout shellmound.sfr.stage.bin
  obs6 filein shellmound.sfr.obs
  unit_conversion  86400.0
  auxiliary line_id
END Options

BEGIN Dimensions
  NREACHES 200
END Dimensions

BEGIN Packagedata
  open/close external\shellmound_packagedata.dat
END Packagedata

BEGIN Connectiondata
  1 -2
  2 -3 1
  3 -7 2
  4 -5
  5 -6 4
  6 -9 5
  7 -8 3
  8 -11 7
  9 -10 6
  10 -13 9
  11 -12 8
  12 -15 11
  13 -15 10
  14 -20
  15 -16 12 13
  16 -17 15
  17 -18 16
  18 -19 17
  19 -21 18
  20 -22 14
  21 -23 19
  22 -24 20
  23 -30 21
  24 -32 22
  25 -26
  26 -27 25
  27 -28 26
  28 -29 27
  29 -36 28
  30 -31 23
  31 -38 30
  32 -33 24
  33 -34 32
  34 -35 33
  35 -39 34
  36 -37 29
  37 -45 36
  38 -52 31
  39 -40 35
  40 -41 39
  41 -42 40
  42 -43 41
  43 -44 42
  44 -54 43
  45 -46 37
  46 -47 45
  47 -48 46
  48 -62 47
  49 -50
  50 -62 49
  51 -65
  52 -53 38
  53 -66 52
  54 -55 44
  55 -56 54
  56 -57 55
  57 -58 56
  58 -59 57
  59 -60 58
  60 -61 59
  61 -66 60
  62 -63 48 50
  63 -64 62
  64 -68 63
  65 -70 51
  66 -67 53 61
  67 -73 66
  68 -69 64
  69 -74 68
  70 -71 65
  71 -72 70
  72 -80 71
  73 -80 67
  74 -83 69
  75 -76
  76 -77 75
  77 -78 76
  78 -79 77
  79 -84 78
  80 -81 72 73
  81 -82 80
  82 -89 81
  83 -89 74
  84 -85 79
  85 -86 84
  86 -87 85
  87 -88 86
  88 -90 87
  89 -101 82 83
  90 -102 88
  91 -92
  92 -93 91
  93 -94 92
  94 -95 93
  95 -96 94
  96 -97 95
  97 -98 96
  98 -99 97
  99 -100 98
  100 -104 99
  101 -108 89
  102 -103 90
  103 -108 102
  104 -105 100
  105 -106 104
  106 -107 105
  107 -110 106
  108 -109 101 103
  109 -110 108
  110 -111 107 109
  111 -112 110
  112 -113 111
  113 -114 112
  114 -118 113
  115 -116
  116 -117 115
  117 -120 116
  118 -119 114
  119 -123 118
  120 -121 117
  121 -122 120
  122 -124 121
  123 -125 119
  124 -128 122
  125 -133 123
  126 -138
  127 -139
  128 -129 124
  129 -130 128
  130 -131 129
  131 -132 130
  132 -139 131
  133 -134 125
  134 -135 133
  135 -136 134
  136 -137 135
  137 -140 136
  138 -141 126
  139 -145 127 132
  140 -148 137
  141 -159 138
  142 -143
  143 -164 142
  144 -164
  145 -146 139
  146 -147 145
  147 -170 146
  148 -172 140
  149 -178
  150 -151
  151 -152 150
  152 -184 151
  153 -186
  154 -155
  155 -188 154
  156 -157
  157 156
  158 
  159 141
  160 -161
  161 -162 160
  162 -163 161
  163 162
  164 143 144
  165 -166
  166 -167 165
  167 -168 166
  168 -169 167
  169 168
  170 -171 147
  171 170
  172 -173 148
  173 -174 172
  174 -175 173
  175 174
  176 -177
  177 176
  178 -179 149
  179 -180 178
  180 -181 179
  181 -182 180
  182 -183 181
  183 182
  184 152
  185 
  186 -187 153
  187 186
  188 -189 155
  189 -190 188
  190 -191 189
  191 -192 190
  192 -193 191
  193 -194 192
  194 193
  195 -196
  196 -197 195
  197 -198 196
  198 -199 197
  199 -200 198
  200 199
END Connectiondata

BEGIN Period 1
1 runoff 3459.574056691177
2 runoff 3459.574056691177
3 runoff 3459.574056691177
4 runoff 1154.1989085119046
5 runoff 1154.1989085119046
6 runoff 1154.1989085119046
9 runoff 743.87812
10 runoff 743.87812
13 runoff 1176.7845364705881
14 runoff 565.4409421290322
15 runoff 757.8831296969696
16 runoff 757.8831296969696
17 runoff 757.8831296969696
18 runoff 757.8831296969696
19 runoff 757.8831296969696
22 runoff 519.8770711612902
23 runoff 678.8209170588235
24 runoff 565.4409421290322
25 runoff 6459.728254223018
26 runoff 6459.728254223018
27 runoff 6459.728254223018
28 runoff 6459.728254223018
29 runoff 6459.728254223018
30 runoff 607.8480151515151
31 runoff 607.8480151515151
32 inflow 29378524.8319457
32 runoff 714.0080483822092
33 runoff 714.0080483822092
34 runoff 714.0080483822092
35 runoff 714.0080483822092
36 runoff 758.254768393712
37 runoff 758.254768393712
38 runoff 6810.326549089064
39 runoff 292.13944823529414
40 runoff 292.13944823529414
41 runoff 292.13944823529414
42 runoff 292.13944823529414
43 runoff 292.13944823529414
44 runoff 292.13944823529414
45 runoff 1545.247923545837
46 runoff 1545.247923545837
47 runoff 1545.247923545837
48 runoff 1545.247923545837
49 runoff 6826.294626389928
50 runoff 6826.294626389928
52 runoff 1609.5864569825
53 runoff 1609.5864569825
54 runoff 626.3894622306723
55 runoff 626.3894622306723
56 runoff 626.3894622306723
57 runoff 626.3894622306723
58 runoff 626.3894622306723
59 runoff 626.3894622306723
60 runoff 626.3894622306723
61 runoff 626.3894622306723
62 runoff 801.6689256862746
63 runoff 801.6689256862746
64 runoff 801.6689256862746
65 runoff 664.896801339394
66 runoff 1076.8437109571428
67 runoff 1076.8437109571428
70 runoff 2969.068358499278
71 runoff 2969.068358499278
72 runoff 2969.068358499278
75 runoff 1325.1764059112943
76 runoff 1325.1764059112943
77 runoff 1325.1764059112943
78 runoff 1325.1764059112943
79 runoff 1325.1764059112943
84 runoff 1236.0864249142858
85 runoff 1236.0864249142858
86 runoff 1236.0864249142858
87 runoff 1236.0864249142858
88 runoff 1236.0864249142858
90 runoff 2707.455730657143
91 runoff 1920.2200180602572
92 runoff 1920.2200180602572
93 runoff 1920.2200180602572
94 runoff 1920.2200180602572
95 runoff 1920.2200180602572
96 runoff 1920.2200180602572
97 runoff 1920.2200180602572
98 runoff 1920.2200180602572
99 runoff 1920.2200180602572
100 runoff 1920.2200180602572
101 runoff 1508.6087682428572
102 runoff 743.256482495671
103 runoff 743.256482495671
104 runoff 2032.0024034275211
105 runoff 2032.0024034275211
106 runoff 2032.0024034275211
107 runoff 2032.0024034275211
110 runoff 3027.700660607143
111 runoff 2148.669507857143
112 runoff 2148.669507857143
113 runoff 2148.669507857143
114 runoff 2148.669507857143
115 runoff 11930.666149624163
116 runoff 11930.666149624163
117 runoff 11930.666149624163
120 runoff 176.50436471568628
121 runoff 176.50436471568628
122 runoff 176.50436471568628
124 runoff 10292.94151677669
126 runoff 6852.762242362088
127 runoff 5035.212750973964
128 runoff 446.96111040000005
129 runoff 446.96111040000005
130 runoff 446.96111040000005
131 runoff 446.96111040000005
132 runoff 446.96111040000005
133 runoff 664.5084808914287
134 runoff 664.5084808914287
135 runoff 664.5084808914287
136 runoff 664.5084808914287
137 runoff 664.5084808914287
138 runoff 2565.8637556342856
141 runoff 428.5800270428572
142 runoff 851.4658795588235
143 runoff 851.4658795588235
144 runoff 29169.090386053744
149 runoff 10276.722227692751
150 runoff 889.5123917142859
151 runoff 889.5123917142859
152 runoff 889.5123917142859
153 runoff 13230.459611155613
154 runoff 5352.433745653361
155 runoff 5352.433745653361
156 runoff 2949.3091009534287
157 runoff 2949.3091009534287
158 runoff 537.475882269697
160 runoff 2541.8152300628003
161 runoff 2541.8152300628003
162 runoff 2541.8152300628003
163 runoff 2541.8152300628003
165 runoff 2233.7288742857145
166 runoff 2233.7288742857145
167 runoff 2233.7288742857145
168 runoff 2233.7288742857145
169 runoff 2233.7288742857145
172 runoff 4281.390053035428
173 runoff 4281.390053035428
174 runoff 4281.390053035428
175 runoff 4281.390053035428
176 runoff 365.28183666666666
177 runoff 365.28183666666666
178 runoff 273.7493092156863
179 runoff 273.7493092156863
180 runoff 273.7493092156863
181 runoff 273.7493092156863
182 runoff 273.7493092156863
183 runoff 273.7493092156863
184 runoff 2091.415099895023
185 runoff 5327.389797142857
188 runoff 287.0398092962785
189 runoff 287.0398092962785
190 runoff 287.0398092962785
191 runoff 287.0398092962785
192 runoff 287.0398092962785
193 runoff 287.0398092962785
194 runoff 287.0398092962785
195 inflow 22958953.446651585
END Period 1

BEGIN Period 2
1 runoff 2601.1922855555554
2 runoff 2601.1922855555554
3 runoff 2601.1922855555554
4 runoff 637.9307166666667
5 runoff 637.9307166666667
6 runoff 637.9307166666667
9 runoff 405.55055
10 runoff 405.55055
13 runoff 811.1011
14 runoff 336.11328
15 runoff 373.93901999999997
16 runoff 373.93901999999997
17 runoff 373.93901999999997
18 runoff 373.93901999999997
19 runoff 373.93901999999997
22 runoff 336.11328
23 runoff 468.7624333333333
24 runoff 336.11328
25 runoff 3379.3469474
26 runoff 3379.3469474
27 runoff 3379.3469474
28 runoff 3379.3469474
29 runoff 3379.3469474
30 runoff 399.7185
31 runoff 399.7185
32 inflow 32174185.357777778
32 runoff 364.781635
33 runoff 364.781635
34 runoff 364.781635
35 runoff 364.781635
36 runoff 421.8738708333333
37 runoff 421.8738708333333
38 runoff 3676.3658
39 runoff 191.28141666666667
40 runoff 191.28141666666667
41 runoff 191.28141666666667
42 runoff 191.28141666666667
43 runoff 191.28141666666667
44 runoff 191.28141666666667
45 runoff 803.5149647916667
46 runoff 803.5149647916667
47 runoff 803.5149647916667
48 runoff 803.5149647916667
49 runoff 3745.5875905000003
50 runoff 3745.5875905000003
52 runoff 308.0152225
53 runoff 308.0152225
54 runoff 334.62749287500003
55 runoff 334.62749287500003
56 runoff 334.62749287500003
57 runoff 334.62749287500003
58 runoff 334.62749287500003
59 runoff 334.62749287500003
60 runoff 334.62749287500003
61 runoff 334.62749287500003
62 runoff 299.0954666666667
63 runoff 299.0954666666667
64 runoff 299.0954666666667
65 runoff 405.80199999999996
66 runoff 467.5410111666667
67 runoff 467.5410111666667
70 runoff 1472.1465777777778
71 runoff 1472.1465777777778
72 runoff 1472.1465777777778
75 runoff 665.5096109333333
76 runoff 665.5096109333333
77 runoff 665.5096109333333
78 runoff 665.5096109333333
79 runoff 665.5096109333333
84 runoff 681.0110873333334
85 runoff 681.0110873333334
86 runoff 681.0110873333334
87 runoff 681.0110873333334
88 runoff 681.0110873333334
90 runoff 1203.4137176666666
91 runoff 1137.1753956333334
92 runoff 1137.1753956333334
93 runoff 1137.1753956333334
94 runoff 1137.1753956333334
95 runoff 1137.1753956333334
96 runoff 1137.1753956333334
97 runoff 1137.1753956333334
98 runoff 1137.1753956333334
99 runoff 1137.1753956333334
100 runoff 1137.1753956333334
101 runoff 736.0537599999999
102 runoff 325.38625
103 runoff 325.38625
104 runoff 993.6722791666666
105 runoff 993.6722791666666
106 runoff 993.6722791666666
107 runoff 993.6722791666666
110 runoff 1787.6831
111 runoff 944.6932583333335
112 runoff 944.6932583333335
113 runoff 944.6932583333335
114 runoff 944.6932583333335
115 runoff 7229.412557777779
116 runoff 7229.412557777779
117 runoff 7229.412557777779
120 runoff 108.73534666666666
121 runoff 108.73534666666666
122 runoff 108.73534666666666
124 runoff 5219.905857999999
126 runoff 3113.333607266666
127 runoff 1958.99215
128 runoff 211.59155333333334
129 runoff 211.59155333333334
130 runoff 211.59155333333334
131 runoff 211.59155333333334
132 runoff 211.59155333333334
133 runoff 466.4911466666666
134 runoff 466.4911466666666
135 runoff 466.4911466666666
136 runoff 466.4911466666666
137 runoff 466.4911466666666
138 runoff 283.3596824
141 runoff 283.3596824
142 runoff 433.3016333333333
143 runoff 433.3016333333333
144 runoff 13971.391794466666
149 runoff 6282.813288333334
150 runoff 402.55045333333334
151 runoff 402.55045333333334
152 runoff 402.55045333333334
153 runoff 10946.422702
154 runoff 3536.72215
155 runoff 3536.72215
156 runoff 1759.8753720666668
157 runoff 1759.8753720666668
158 runoff 314.05739
160 runoff 704.4704072583334
161 runoff 704.4704072583334
162 runoff 704.4704072583334
163 runoff 704.4704072583334
165 runoff 1276.8120666666669
166 runoff 1276.8120666666669
167 runoff 1276.8120666666669
168 runoff 1276.8120666666669
169 runoff 1276.8120666666669
172 runoff 2342.8244065833333
173 runoff 2342.8244065833333
174 runoff 2342.8244065833333
175 runoff 2342.8244065833333
176 runoff 144.24794999999997
177 runoff 144.24794999999997
178 runoff 183.60751377777777
179 runoff 183.60751377777777
180 runoff 183.60751377777777
181 runoff 183.60751377777777
182 runoff 183.60751377777777
183 runoff 183.60751377777777
184 runoff 907.4433143666668
185 runoff 1826.2716333333335
188 runoff 170.54377142857143
189 runoff 170.54377142857143
190 runoff 170.54377142857143
191 runoff 170.54377142857143
192 runoff 170.54377142857143
193 runoff 170.54377142857143
194 runoff 170.54377142857143
195 inflow 24737787.254938275
END Period 2

BEGIN Period 3
1 runoff 1314.7317555555555
2 runoff 1314.7317555555555
3 runoff 1314.7317555555555
4 runoff 553.9633827777778
5 runoff 553.9633827777778
6 runoff 553.9633827777778
9 runoff 206.0170416666667
10 runoff 206.0170416666667
13 runoff 412.0340833333334
14 runoff 178.07128333333333
15 runoff 189.40842
16 runoff 189.40842
17 runoff 189.40842
18 runoff 189.40842
19 runoff 189.40842
22 runoff 178.07128333333333
23 runoff 479.52855
24 runoff 178.07128333333333
25 runoff 4444.907221016667
26 runoff 4444.907221016667
27 runoff 4444.907221016667
28 runoff 4444.907221016667
29 runoff 4444.907221016667
30 runoff 198.8615
31 runoff 198.8615
32 inflow 14951932.793333335
32 runoff 187.73973333333333
33 runoff 187.73973333333333
34 runoff 187.73973333333333
35 runoff 187.73973333333333
36 runoff 494.239865
37 runoff 494.239865
38 runoff 1832.8750666666665
39 runoff 91.53710833333334
40 runoff 91.53710833333334
41 runoff 91.53710833333334
42 runoff 91.53710833333334
43 runoff 91.53710833333334
44 runoff 91.53710833333334
45 runoff 819.7263493333332
46 runoff 819.7263493333332
47 runoff 819.7263493333332
48 runoff 819.7263493333332
49 runoff 3041.2819875000005
50 runoff 3041.2819875000005
52 runoff 185.73971666666665
53 runoff 185.73971666666665
54 runoff 222.10864583333336
55 runoff 222.10864583333336
56 runoff 222.10864583333336
57 runoff 222.10864583333336
58 runoff 222.10864583333336
59 runoff 222.10864583333336
60 runoff 222.10864583333336
61 runoff 222.10864583333336
62 runoff 160.61122777777777
63 runoff 160.61122777777777
64 runoff 160.61122777777777
65 runoff 224.67926666666665
66 runoff 390.02281666666664
67 runoff 390.02281666666664
70 runoff 1386.1187666666665
71 runoff 1386.1187666666665
72 runoff 1386.1187666666665
75 runoff 798.2122733333333
76 runoff 798.2122733333333
77 runoff 798.2122733333333
78 runoff 798.2122733333333
79 runoff 798.2122733333333
84 runoff 737.4422666666666
85 runoff 737.4422666666666
86 runoff 737.4422666666666
87 runoff 737.4422666666666
88 runoff 737.4422666666666
90 runoff 1281.2761666666668
91 runoff 957.5183066666666
92 runoff 957.5183066666666
93 runoff 957.5183066666666
94 runoff 957.5183066666666
95 runoff 957.5183066666666
96 runoff 957.5183066666666
97 runoff 957.5183066666666
98 runoff 957.5183066666666
99 runoff 957.5183066666666
100 runoff 957.5183066666666
101 runoff 748.4229333333333
102 runoff 188.34888833333335
103 runoff 188.34888833333335
104 runoff 772.8510416666667
105 runoff 772.8510416666667
106 runoff 772.8510416666667
107 runoff 772.8510416666667
110 runoff 2680.0750000000003
111 runoff 1397.9195833333333
112 runoff 1397.9195833333333
113 runoff 1397.9195833333333
114 runoff 1397.9195833333333
115 runoff 9684.989605555556
116 runoff 9684.989605555556
117 runoff 9684.989605555556
120 runoff 106.24135000000001
121 runoff 106.24135000000001
122 runoff 106.24135000000001
124 runoff 5360.322979886666
126 runoff 3021.3010166666663
127 runoff 1924.4727666666668
128 runoff 192.69
129 runoff 192.69
130 runoff 192.69
131 runoff 192.69
132 runoff 192.69
133 runoff 724.8283333333333
134 runoff 724.8283333333333
135 runoff 724.8283333333333
136 runoff 724.8283333333333
137 runoff 724.8283333333333
138 runoff 372.4253833333334
141 runoff 372.4253833333334
142 runoff 618.2748333333333
143 runoff 618.2748333333333
144 runoff 16643.946266666666
149 runoff 4726.068175
150 runoff 394.7321111111111
151 runoff 394.7321111111111
152 runoff 394.7321111111111
153 runoff 13450.828366875334
154 runoff 4770.756079416667
155 runoff 4770.756079416667
156 runoff 2619.6192
157 runoff 2619.6192
158 runoff 220.96233499999997
160 runoff 819.6880208333333
161 runoff 819.6880208333333
162 runoff 819.6880208333333
163 runoff 819.6880208333333
165 runoff 2032.5556666666666
166 runoff 2032.5556666666666
167 runoff 2032.5556666666666
168 runoff 2032.5556666666666
169 runoff 2032.5556666666666
172 runoff 3859.821515625
173 runoff 3859.821515625
174 runoff 3859.821515625
175 runoff 3859.821515625
176 runoff 207.90324999999999
177 runoff 207.90324999999999
178 runoff 154.47622222222222
179 runoff 154.47622222222222
180 runoff 154.47622222222222
181 runoff 154.47622222222222
182 runoff 154.47622222222222
183 runoff 154.47622222222222
184 runoff 854.0328333333334
185 runoff 2627.0743333333335
188 runoff 223.4410823809524
189 runoff 223.4410823809524
190 runoff 223.4410823809524
191 runoff 223.4410823809524
192 runoff 223.4410823809524
193 runoff 223.4410823809524
194 runoff 223.4410823809524
195 inflow 4486422.606666666
END Period 3

BEGIN Period 4
1 runoff 2254.4434327777776
2 runoff 2254.4434327777776
3 runoff 2254.4434327777776
4 runoff 516.9924227777777
5 runoff 516.9924227777777
6 runoff 516.9924227777777
9 runoff 175.96154833333333
10 runoff 175.96154833333333
13 runoff 552.5753966666666
14 runoff 217.31719
15 runoff 231.70311666666666
16 runoff 231.70311666666666
17 runoff 231.70311666666666
18 runoff 231.70311666666666
19 runoff 231.70311666666666
22 runoff 180.71869
23 runoff 339.5192383333333
24 runoff 217.31719
25 runoff 3482.0055804999997
26 runoff 3482.0055804999997
27 runoff 3482.0055804999997
28 runoff 3482.0055804999997
29 runoff 3482.0055804999997
30 runoff 217.840225
31 runoff 217.840225
32 inflow 27038021.44333333
32 runoff 223.70948750000002
33 runoff 223.70948750000002
34 runoff 223.70948750000002
35 runoff 223.70948750000002
36 runoff 605.8418972433333
37 runoff 605.8418972433333
38 runoff 2245.6307566666665
39 runoff 128.71426666666667
40 runoff 128.71426666666667
41 runoff 128.71426666666667
42 runoff 128.71426666666667
43 runoff 128.71426666666667
44 runoff 128.71426666666667
45 runoff 1030.3879634412501
46 runoff 1030.3879634412501
47 runoff 1030.3879634412501
48 runoff 1030.3879634412501
49 runoff 4118.901175
50 runoff 4118.901175
52 runoff 144.70855666666668
53 runoff 144.70855666666668
54 runoff 263.3529541666667
55 runoff 263.3529541666667
56 runoff 263.3529541666667
57 runoff 263.3529541666667
58 runoff 263.3529541666667
59 runoff 263.3529541666667
60 runoff 263.3529541666667
61 runoff 263.3529541666667
62 runoff 382.39990111111115
63 runoff 382.39990111111115
64 runoff 382.39990111111115
65 runoff 373.72454999999997
66 runoff 508.47676666666666
67 runoff 508.47676666666666
70 runoff 1731.7048955555556
71 runoff 1731.7048955555556
72 runoff 1731.7048955555556
75 runoff 721.2784081333333
76 runoff 721.2784081333333
77 runoff 721.2784081333333
78 runoff 721.2784081333333
79 runoff 721.2784081333333
84 runoff 903.1748666666666
85 runoff 903.1748666666666
86 runoff 903.1748666666666
87 runoff 903.1748666666666
88 runoff 903.1748666666666
90 runoff 1679.5582666666667
91 runoff 1013.6264216666666
92 runoff 1013.6264216666666
93 runoff 1013.6264216666666
94 runoff 1013.6264216666666
95 runoff 1013.6264216666666
96 runoff 1013.6264216666666
97 runoff 1013.6264216666666
98 runoff 1013.6264216666666
99 runoff 1013.6264216666666
100 runoff 1013.6264216666666
101 runoff 991.2725
102 runoff 209.98489333333333
103 runoff 209.98489333333333
104 runoff 970.4782833333334
105 runoff 970.4782833333334
106 runoff 970.4782833333334
107 runoff 970.4782833333334
110 runoff 1773.1234794
111 runoff 1383.69375
112 runoff 1383.69375
113 runoff 1383.69375
114 runoff 1383.69375
115 runoff 7603.367552722223
116 runoff 7603.367552722223
117 runoff 7603.367552722223
120 runoff 102.71506394444445
121 runoff 102.71506394444445
122 runoff 102.71506394444445
124 runoff 5722.154004383333
126 runoff 4261.678500385333
127 runoff 2967.4430029999994
128 runoff 190.26548893333336
129 runoff 190.26548893333336
130 runoff 190.26548893333336
131 runoff 190.26548893333336
132 runoff 190.26548893333336
133 runoff 644.2813333333335
134 runoff 644.2813333333335
135 runoff 644.2813333333335
136 runoff 644.2813333333335
137 runoff 644.2813333333335
138 runoff 1493.4348499999999
141 runoff 345.77756666666664
142 runoff 529.2331925
143 runoff 529.2331925
144 runoff 18264.37095
149 runoff 4587.296531666667
150 runoff 546.1183333333332
151 runoff 546.1183333333332
152 runoff 546.1183333333332
153 runoff 7965.40137825
154 runoff 3627.4019583333334
155 runoff 3627.4019583333334
156 runoff 2356.6870666666664
157 runoff 2356.6870666666664
158 runoff 330.7464928333333
160 runoff 1409.6494258333332
161 runoff 1409.6494258333332
162 runoff 1409.6494258333332
163 runoff 1409.6494258333332
165 runoff 1684.9399999999998
166 runoff 1684.9399999999998
167 runoff 1684.9399999999998
168 runoff 1684.9399999999998
169 runoff 1684.9399999999998
172 runoff 3534.12316125
173 runoff 3534.12316125
174 runoff 3534.12316125
175 runoff 3534.12316125
176 runoff 180.69618333333335
177 runoff 180.69618333333335
178 runoff 138.60645833333334
179 runoff 138.60645833333334
180 runoff 138.60645833333334
181 runoff 138.60645833333334
182 runoff 138.60645833333334
183 runoff 138.60645833333334
184 runoff 1158.3729680000001
185 runoff 2899.522166666667
188 runoff 195.20565476190475
189 runoff 195.20565476190475
190 runoff 195.20565476190475
191 runoff 195.20565476190475
192 runoff 195.20565476190475
193 runoff 195.20565476190475
194 runoff 195.20565476190475
195 inflow 25694351.745
END Period 4

BEGIN Period 5
1 runoff 3520.606167777778
2 runoff 3520.606167777778
3 runoff 3520.606167777778
4 runoff 1100.1329466666666
5 runoff 1100.1329466666666
6 runoff 1100.1329466666666
9 runoff 321.27337
10 runoff 321.27337
13 runoff 1446.9307533333333
14 runoff 818.30675
15 runoff 660.0806399999999
16 runoff 660.0806399999999
17 runoff 660.0806399999999
18 runoff 660.0806399999999
19 runoff 660.0806399999999
22 runoff 566.85025
23 runoff 741.8638000000001
24 runoff 818.30675
25 runoff 4697.055549666667
26 runoff 4697.055549666667
27 runoff 4697.055549666667
28 runoff 4697.055549666667
29 runoff 4697.055549666667
30 runoff 741.8638000000001
31 runoff 741.8638000000001
32 inflow 25262586.885
32 runoff 733.067145
33 runoff 733.067145
34 runoff 733.067145
35 runoff 733.067145
36 runoff 724.85421125
37 runoff 724.85421125
38 runoff 6834.311940766667
39 runoff 346.42182055555554
40 runoff 346.42182055555554
41 runoff 346.42182055555554
42 runoff 346.42182055555554
43 runoff 346.42182055555554
44 runoff 346.42182055555554
45 runoff 1658.4514988333333
46 runoff 1658.4514988333333
47 runoff 1658.4514988333333
48 runoff 1658.4514988333333
49 runoff 6979.28945
50 runoff 6979.28945
52 runoff 374.4946078
53 runoff 374.4946078
54 runoff 682.901006875
55 runoff 682.901006875
56 runoff 682.901006875
57 runoff 682.901006875
58 runoff 682.901006875
59 runoff 682.901006875
60 runoff 682.901006875
61 runoff 682.901006875
62 runoff 1106.3114611111112
63 runoff 1106.3114611111112
64 runoff 1106.3114611111112
65 runoff 737.0404000000001
66 runoff 1308.2591333333332
67 runoff 1308.2591333333332
70 runoff 3199.131266666667
71 runoff 3199.131266666667
72 runoff 3199.131266666667
75 runoff 978.2588549433334
76 runoff 978.2588549433334
77 runoff 978.2588549433334
78 runoff 978.2588549433334
79 runoff 978.2588549433334
84 runoff 947.1361883333333
85 runoff 947.1361883333333
86 runoff 947.1361883333333
87 runoff 947.1361883333333
88 runoff 947.1361883333333
90 runoff 1893.8706366666665
91 runoff 1865.1556613333335
92 runoff 1865.1556613333335
93 runoff 1865.1556613333335
94 runoff 1865.1556613333335
95 runoff 1865.1556613333335
96 runoff 1865.1556613333335
97 runoff 1865.1556613333335
98 runoff 1865.1556613333335
99 runoff 1865.1556613333335
100 runoff 1865.1556613333335
101 runoff 1817.9480199999998
102 runoff 278.63841
103 runoff 278.63841
104 runoff 2186.219129541667
105 runoff 2186.219129541667
106 runoff 2186.219129541667
107 runoff 2186.219129541667
110 runoff 371.34639999999996
111 runoff 1906.011875
112 runoff 1906.011875
113 runoff 1906.011875
114 runoff 1906.011875
115 runoff 11348.010751111111
116 runoff 11348.010751111111
117 runoff 11348.010751111111
120 runoff 141.1442111111111
121 runoff 141.1442111111111
122 runoff 141.1442111111111
124 runoff 11158.795121666666
126 runoff 8732.827242033334
127 runoff 5275.954733333333
128 runoff 270.89248000000003
129 runoff 270.89248000000003
130 runoff 270.89248000000003
131 runoff 270.89248000000003
132 runoff 270.89248000000003
133 runoff 878.5007333333333
134 runoff 878.5007333333333
135 runoff 878.5007333333333
136 runoff 878.5007333333333
137 runoff 878.5007333333333
138 runoff 3530.9318333333335
141 runoff 810.0825
142 runoff 798.34245
143 runoff 798.34245
144 runoff 31342.609461233333
149 runoff 11181.016375
150 runoff 1087.0799683333332
151 runoff 1087.0799683333332
152 runoff 1087.0799683333332
153 runoff 11863.284991266668
154 runoff 4960.476912499999
155 runoff 4960.476912499999
156 runoff 4182.595862808334
157 runoff 4182.595862808334
158 runoff 523.6675
160 runoff 3421.823052670392
161 runoff 3421.823052670392
162 runoff 3421.823052670392
163 runoff 3421.823052670392
165 runoff 2270.218066666667
166 runoff 2270.218066666667
167 runoff 2270.218066666667
168 runoff 2270.218066666667
169 runoff 2270.218066666667
172 runoff 5404.029669666666
173 runoff 5404.029669666666
174 runoff 5404.029669666666
175 runoff 5404.029669666666
176 runoff 345.213
177 runoff 345.213
178 runoff 293.03568666666666
179 runoff 293.03568666666666
180 runoff 293.03568666666666
181 runoff 293.03568666666666
182 runoff 293.03568666666666
183 runoff 293.03568666666666
184 runoff 2459.66662
185 runoff 5813.683166666667
188 runoff 263.04765754761905
189 runoff 263.04765754761905
190 runoff 263.04765754761905
191 runoff 263.04765754761905
192 runoff 263.04765754761905
193 runoff 263.04765754761905
194 runoff 263.04765754761905
195 inflow 26436558.596666664
END Period 5

BEGIN Period 6
1 runoff 2677.712418888889
2 runoff 2677.712418888889
3 runoff 2677.712418888889
4 runoff 768.8918311111111
5 runoff 768.8918311111111
6 runoff 768.8918311111111
9 runoff 471.77740000000006
10 runoff 471.77740000000006
13 runoff 658.4933733333334
14 runoff 305.62968
15 runoff 396.4536033333333
16 runoff 396.4536033333333
17 runoff 396.4536033333333
18 runoff 396.4536033333333
19 runoff 396.4536033333333
22 runoff 268.21708
23 runoff 253.45356666666666
24 runoff 305.62968
25 runoff 4707.161367999999
26 runoff 4707.161367999999
27 runoff 4707.161367999999
28 runoff 4707.161367999999
29 runoff 4707.161367999999
30 runoff 253.45356666666666
31 runoff 253.45356666666666
32 inflow 31847574.813333333
32 runoff 361.9534141666667
33 runoff 361.9534141666667
34 runoff 361.9534141666667
35 runoff 361.9534141666667
36 runoff 473.24340416666666
37 runoff 473.24340416666666
38 runoff 3203.0725714666664
39 runoff 144.64315555555555
40 runoff 144.64315555555555
41 runoff 144.64315555555555
42 runoff 144.64315555555555
43 runoff 144.64315555555555
44 runoff 144.64315555555555
45 runoff 1123.9794958333332
46 runoff 1123.9794958333332
47 runoff 1123.9794958333332
48 runoff 1123.9794958333332
49 runoff 5416.294620833333
50 runoff 5416.294620833333
52 runoff 1057.9706410333333
53 runoff 1057.9706410333333
54 runoff 334.83038124999996
55 runoff 334.83038124999996
56 runoff 334.83038124999996
57 runoff 334.83038124999996
58 runoff 334.83038124999996
59 runoff 334.83038124999996
60 runoff 334.83038124999996
61 runoff 334.83038124999996
62 runoff 690.4565000000001
63 runoff 690.4565000000001
64 runoff 690.4565000000001
65 runoff 394.1489166666667
66 runoff 729.9855833333332
67 runoff 729.9855833333332
70 runoff 2102.943947777778
71 runoff 2102.943947777778
72 runoff 2102.943947777778
75 runoff 801.9027600000001
76 runoff 801.9027600000001
77 runoff 801.9027600000001
78 runoff 801.9027600000001
79 runoff 801.9027600000001
84 runoff 728.9992666666666
85 runoff 728.9992666666666
86 runoff 728.9992666666666
87 runoff 728.9992666666666
88 runoff 728.9992666666666
90 runoff 1778.171833333333
91 runoff 1218.7705888333335
92 runoff 1218.7705888333335
93 runoff 1218.7705888333335
94 runoff 1218.7705888333335
95 runoff 1218.7705888333335
96 runoff 1218.7705888333335
97 runoff 1218.7705888333335
98 runoff 1218.7705888333335
99 runoff 1218.7705888333335
100 runoff 1218.7705888333335
101 runoff 1044.7268333333334
102 runoff 454.8693125
103 runoff 454.8693125
104 runoff 1335.8404791666667
105 runoff 1335.8404791666667
106 runoff 1335.8404791666667
107 runoff 1335.8404791666667
110 runoff 2348.4455
111 runoff 2100.5108333333333
112 runoff 2100.5108333333333
113 runoff 2100.5108333333333
114 runoff 2100.5108333333333
115 runoff 9991.776355555556
116 runoff 9991.776355555556
117 runoff 9991.776355555556
120 runoff 111.20366666666668
121 runoff 111.20366666666668
122 runoff 111.20366666666668
124 runoff 7724.645274466668
126 runoff 4515.200835833333
127 runoff 4574.129125
128 runoff 312.7180933333333
129 runoff 312.7180933333333
130 runoff 312.7180933333333
131 runoff 312.7180933333333
132 runoff 312.7180933333333
133 runoff 485.59229999999997
134 runoff 485.59229999999997
135 runoff 485.59229999999997
136 runoff 485.59229999999997
137 runoff 485.59229999999997
138 runoff 3075.2566666666667
141 runoff 193.4428
142 runoff 441.71089166666667
143 runoff 441.71089166666667
144 runoff 18622.396675316668
149 runoff 5876.106548666667
150 runoff 594.5988888888888
151 runoff 594.5988888888888
152 runoff 594.5988888888888
153 runoff 8832.755469833333
154 runoff 3969.12295
155 runoff 3969.12295
156 runoff 2011.7688650533332
157 runoff 2011.7688650533332
158 runoff 307.66551666666663
160 runoff 2292.4602583333335
161 runoff 2292.4602583333335
162 runoff 2292.4602583333335
163 runoff 2292.4602583333335
165 runoff 1984.6649999999997
166 runoff 1984.6649999999997
167 runoff 1984.6649999999997
168 runoff 1984.6649999999997
169 runoff 1984.6649999999997
172 runoff 3120.5456139999997
173 runoff 3120.5456139999997
174 runoff 3120.5456139999997
175 runoff 3120.5456139999997