# shellmound model version 0.post69.dev0+g5e43358
# File generated by Flopy version 3.10.0.dev1 on 11/21/2025 at 16:36:04.
# via modflow-setup version 0.6.0 at 2025-11-21 16:36:05
BEGIN options
  SAVE_FLOWS
END options

BEGIN griddata
  icelltype
    CONSTANT  1
  k  LAYERED
    OPEN/CLOSE  '.\external\k_000.dat'  FACTOR  1.0
    OPEN/CLOSE  '.\external\k_001.dat'  FACTOR  1.0
    OPEN/CLOSE  '.\external\k_002.dat'  FACTOR  1.0
    OPEN/CLOSE  '.\external\k_003.dat'  FACTOR  1.0
    OPEN/CLOSE  '.\external\k_004.dat'  FACTOR  1.0
    OPEN/CLOSE  '.\external\k_005.dat'  FACTOR  1.0
    OPEN/CLOSE  '.\external\k_006.dat'  FACTOR  1.0
    OPEN/CLOSE  '.\external\k_007.dat'  FACTOR  1.0
    OPEN/CLOSE  '.\external\k_008.dat'  FACTOR  1.0
    OPEN/CLOSE  '.\external\k_009.dat'  FACTOR  1.0
    OPEN/CLOSE  '.\external\k_010.dat'  FACTOR  1.0
    OPEN/CLOSE  '.\external\k_011.dat'  FACTOR  1.0
    OPEN/CLOSE  '.\external\k_012.dat'  FACTOR  1.0
  k33  LAYERED
    OPEN/CLOSE  '.\external\k33_000.dat'  FACTOR  1.0
    OPEN/CLOSE  '.\external\k33_001.dat'  FACTOR  1.0
    OPEN/CLOSE  '.\external\k33_002.dat'  FACTOR  1.0
    OPEN/CLOSE  '.\external\k33_003.dat'  FACTOR  1.0
    OPEN/CLOSE  '.\external\k33_004.dat'  FACTOR  1.0
    OPEN/CLOSE  '.\external\k33_005.dat'  FACTOR  1.0
    OPEN/CLOSE  '.\external\k33_006.dat'  FACTOR  1.0
    OPEN/CLOSE  '.\external\k33_007.dat'  FACTOR  1.0
    OPEN/CLOSE  '.\external\k33_008.dat'  FACTOR  1.0
    OPEN/CLOSE  '.\external\k33_009.dat'  FACTOR  1.0
    OPEN/CLOSE  '.\external\k33_010.dat'  FACTOR  1.0
    OPEN/CLOSE  '.\external\k33_011.dat'  FACTOR  1.0
    OPEN/CLOSE  '.\external\k33_012.dat'  FACTOR  1.0
END griddata

