# shellmound model version 0.post69.dev0+g5e43358
# File generated by Flopy version 3.10.0.dev1 on 11/21/2025 at 16:36:04.
# via modflow-setup version 0.6.0 at 2025-11-21 16:36:05
BEGIN options
END options

BEGIN griddata
  strt  LAYERED
    OPEN/CLOSE  '.\external\strt_000.dat'  FACTOR  1.0
    OPEN/CLOSE  '.\external\strt_001.dat'  FACTOR  1.0
    OPEN/CLOSE  '.\external\strt_002.dat'  FACTOR  1.0
    OPEN/CLOSE  '.\external\strt_003.dat'  FACTOR  1.0
    OPEN/CLOSE  '.\external\strt_004.dat'  FACTOR  1.0
    OPEN/CLOSE  '.\external\strt_005.dat'  FACTOR  1.0
    OPEN/CLOSE  '.\external\strt_006.dat'  FACTOR  1.0
    OPEN/CLOSE  '.\external\strt_007.dat'  FACTOR  1.0
    OPEN/CLOSE  '.\external\strt_008.dat'  FACTOR  1.0
    OPEN/CLOSE  '.\external\strt_009.dat'  FACTOR  1.0
    OPEN/CLOSE  '.\external\strt_010.dat'  FACTOR  1.0
    OPEN/CLOSE  '.\external\strt_011.dat'  FACTOR  1.0
    OPEN/CLOSE  '.\external\strt_012.dat'  FACTOR  1.0
END griddata

