# shellmound model version 0.post69.dev0+g5e43358
# File generated by Flopy version 3.10.0.dev1 on 11/21/2025 at 16:36:04.
# via modflow-setup version 0.6.0 at 2025-11-21 16:36:05
BEGIN options
  BOUNDNAMES
  SAVE_FLOWS
  OBS6  FILEIN  shellmound.drn.obs
END options

BEGIN dimensions
  MAXBOUND  21
END dimensions

BEGIN period  1
    OPEN/CLOSE  '.\external\drn_000.dat'
END period  1

