# shellmound model version 0.post69.dev0+g5e43358
# File generated by Flopy version 3.10.0.dev1 on 11/21/2025 at 16:36:05.
# via modflow-setup version 0.6.0 at 2025-11-21 16:36:05
BEGIN options
END options

BEGIN continuous  FILEOUT  shellmound.wel.obs.output.csv
  wel_100278  wel  wel_100278
  wel_100279  wel  wel_100279
  wel_100280  wel  wel_100280
  wel_100281  wel  wel_100281
  wel_100282  wel  wel_100282
  wel_100283  wel  wel_100283
  wel_100284  wel  wel_100284
  wel_100285  wel  wel_100285
  wel_100286  wel  wel_100286
  wel_100287  wel  wel_100287
  wel_100288  wel  wel_100288
  wel_100289  wel  wel_100289
  wel_100290  wel  wel_100290
  wel_100291  wel  wel_100291
  wel_100292  wel  wel_100292
  wel_100293  wel  wel_100293
  wel_100294  wel  wel_100294
  wel_100295  wel  wel_100295
  wel_100296  wel  wel_100296
  wel_100672  wel  wel_100672
  wel_100673  wel  wel_100673
  wel_100674  wel  wel_100674
  wel_100675  wel  wel_100675
  wel_100676  wel  wel_100676
  wel_100677  wel  wel_100677
  wel_100678  wel  wel_100678
  wel_100679  wel  wel_100679
  wel_100680  wel  wel_100680
  wel_100681  wel  wel_100681
  wel_100682  wel  wel_100682
  wel_100683  wel  wel_100683
  wel_100684  wel  wel_100684
  wel_100685  wel  wel_100685
  wel_100686  wel  wel_100686
  wel_100687  wel  wel_100687
  wel_100688  wel  wel_100688
  wel_100689  wel  wel_100689
  wel_100690  wel  wel_100690
  wel_101066  wel  wel_101066
  wel_101067  wel  wel_101067
  wel_101068  wel  wel_101068
  wel_101069  wel  wel_101069
  wel_101070  wel  wel_101070
  wel_101071  wel  wel_101071
  wel_101072  wel  wel_101072
  wel_101073  wel  wel_101073
  wel_101074  wel  wel_101074
  wel_101075  wel  wel_101075
  wel_101076  wel  wel_101076
  wel_101077  wel  wel_101077
  wel_101078  wel  wel_101078
  wel_101079  wel  wel_101079
  wel_101080  wel  wel_101080
  wel_101081  wel  wel_101081
  wel_101082  wel  wel_101082
  wel_101083  wel  wel_101083
  wel_101084  wel  wel_101084
  wel_101460  wel  wel_101460
  wel_101461  wel  wel_101461
  wel_101462  wel  wel_101462
  wel_101463  wel  wel_101463
  wel_101464  wel  wel_101464
  wel_101465  wel  wel_101465
  wel_101466  wel  wel_101466
  wel_101467  wel  wel_101467
  wel_101468  wel  wel_101468
  wel_101469  wel  wel_101469
  wel_101470  wel  wel_101470
  wel_101471  wel  wel_101471
  wel_101472  wel  wel_101472
  wel_101473  wel  wel_101473
  wel_101474  wel  wel_101474
  wel_101475  wel  wel_101475
  wel_101476  wel  wel_101476
  wel_101477  wel  wel_101477
  wel_101478  wel  wel_101478
  wel_101854  wel  wel_101854
  wel_101855  wel  wel_101855
  wel_101856  wel  wel_101856
  wel_101857  wel  wel_101857
  wel_101858  wel  wel_101858
  wel_101859  wel  wel_101859
  wel_101860  wel  wel_101860
  wel_101861  wel  wel_101861
  wel_101862  wel  wel_101862
  wel_101863  wel  wel_101863
  wel_101864  wel  wel_101864
  wel_101865  wel  wel_101865
  wel_101866  wel  wel_101866
  wel_101867  wel  wel_101867
  wel_101868  wel  wel_101868
  wel_101869  wel  wel_101869
  wel_101870  wel  wel_101870
  wel_101871  wel  wel_101871
  wel_101872  wel  wel_101872
  wel_102248  wel  wel_102248
  wel_102249  wel  wel_102249
  wel_102250  wel  wel_102250
  wel_102251  wel  wel_102251
  wel_102252  wel  wel_102252
  wel_102253  wel  wel_102253
  wel_102254  wel  wel_102254
  wel_102255  wel  wel_102255
  wel_102256  wel  wel_102256
  wel_102257  wel  wel_102257
  wel_102258  wel  wel_102258
  wel_102259  wel  wel_102259
  wel_102260  wel  wel_102260
  wel_102261  wel  wel_102261
  wel_102262  wel  wel_102262
  wel_102263  wel  wel_102263
  wel_102264  wel  wel_102264
  wel_102265  wel  wel_102265
  wel_102266  wel  wel_102266
  wel_102642  wel  wel_102642
  wel_102643  wel  wel_102643
  wel_102644  wel  wel_102644
  wel_102645  wel  wel_102645
  wel_102646  wel  wel_102646
  wel_102647  wel  wel_102647
  wel_102648  wel  wel_102648
  wel_102649  wel  wel_102649
  wel_102650  wel  wel_102650
  wel_102651  wel  wel_102651
  wel_102652  wel  wel_102652
  wel_102653  wel  wel_102653
  wel_102654  wel  wel_102654
  wel_102655  wel  wel_102655
  wel_102656  wel  wel_102656
  wel_102657  wel  wel_102657
  wel_102658  wel  wel_102658
  wel_102659  wel  wel_102659
  wel_102660  wel  wel_102660
  wel_103036  wel  wel_103036
  wel_103037  wel  wel_103037
  wel_103038  wel  wel_103038
  wel_103039  wel  wel_103039
  wel_103040  wel  wel_103040
  wel_103041  wel  wel_103041
  wel_103042  wel  wel_103042
  wel_103043  wel  wel_103043
  wel_103044  wel  wel_103044
  wel_103045  wel  wel_103045
  wel_103046  wel  wel_103046
  wel_103047  wel  wel_103047
  wel_103048  wel  wel_103048
  wel_103049  wel  wel_103049
  wel_103050  wel  wel_103050
  wel_103051  wel  wel_103051
  wel_103052  wel  wel_103052
  wel_103053  wel  wel_103053
  wel_103054  wel  wel_103054
  wel_103430  wel  wel_103430
  wel_103431  wel  wel_103431
  wel_103432  wel  wel_103432
  wel_103433  wel  wel_103433
  wel_103434  wel  wel_103434
  wel_103435  wel  wel_103435
  wel_103436  wel  wel_103436
  wel_103437  wel  wel_103437
  wel_103438  wel  wel_103438
  wel_103439  wel  wel_103439
  wel_103440  wel  wel_103440
  wel_103441  wel  wel_103441
  wel_103442  wel  wel_103442
  wel_103443  wel  wel_103443
  wel_103444  wel  wel_103444
  wel_103445  wel  wel_103445
  wel_103446  wel  wel_103446
  wel_103447  wel  wel_103447
  wel_103448  wel  wel_103448
  wel_103824  wel  wel_103824
  wel_103825  wel  wel_103825
  wel_103826  wel  wel_103826
  wel_103827  wel  wel_103827
  wel_103828  wel  wel_103828
  wel_103829  wel  wel_103829
  wel_103830  wel  wel_103830
  wel_103831  wel  wel_103831
  wel_103832  wel  wel_103832
  wel_103833  wel  wel_103833
  wel_103834  wel  wel_103834
  wel_103835  wel  wel_103835
  wel_103836  wel  wel_103836
  wel_103837  wel  wel_103837
  wel_103838  wel  wel_103838
  wel_103839  wel  wel_103839
  wel_103840  wel  wel_103840
  wel_103841  wel  wel_103841
  wel_103842  wel  wel_103842
  wel_104218  wel  wel_104218
  wel_104219  wel  wel_104219
  wel_104220  wel  wel_104220
  wel_104221  wel  wel_104221
  wel_104222  wel  wel_104222
  wel_104223  wel  wel_104223
  wel_104224  wel  wel_104224
  wel_104225  wel  wel_104225
  wel_104226  wel  wel_104226
  wel_104227  wel  wel_104227
  wel_104228  wel  wel_104228
  wel_104229  wel  wel_104229
  wel_104230  wel  wel_104230
  wel_104231  wel  wel_104231
  wel_104232  wel  wel_104232
  wel_104233  wel  wel_104233
  wel_104234  wel  wel_104234
  wel_104235  wel  wel_104235
  wel_104236  wel  wel_104236
  wel_104612  wel  wel_104612
  wel_104613  wel  wel_104613
  wel_104614  wel  wel_104614
  wel_104615  wel  wel_104615
  wel_104616  wel  wel_104616
  wel_104617  wel  wel_104617
  wel_104618  wel  wel_104618
  wel_104619  wel  wel_104619
  wel_104620  wel  wel_104620
  wel_104621  wel  wel_104621
  wel_104622  wel  wel_104622
  wel_104623  wel  wel_104623
  wel_104624  wel  wel_104624
  wel_58514  wel  wel_58514
  wel_58515  wel  wel_58515
  wel_58516  wel  wel_58516
  wel_58517  wel  wel_58517
  wel_58518  wel  wel_58518
  wel_58519  wel  wel_58519
  wel_58520  wel  wel_58520
  wel_58521  wel  wel_58521
  wel_58522  wel  wel_58522
  wel_58523  wel  wel_58523
  wel_58524  wel  wel_58524
  wel_58525  wel  wel_58525
  wel_58526  wel  wel_58526
  wel_58527  wel  wel_58527
  wel_58528  wel  wel_58528
  wel_58529  wel  wel_58529
  wel_58530  wel  wel_58530
  wel_58531  wel  wel_58531
  wel_58532  wel  wel_58532
  wel_58908  wel  wel_58908
  wel_58909  wel  wel_58909
  wel_58910  wel  wel_58910
  wel_58911  wel  wel_58911
  wel_58912  wel  wel_58912
  wel_58913  wel  wel_58913
  wel_58914  wel  wel_58914
  wel_58915  wel  wel_58915
  wel_58916  wel  wel_58916
  wel_58917  wel  wel_58917
  wel_58918  wel  wel_58918
  wel_58919  wel  wel_58919
  wel_58920  wel  wel_58920
  wel_58921  wel  wel_58921
  wel_58922  wel  wel_58922
  wel_58923  wel  wel_58923
  wel_58924  wel  wel_58924
  wel_58925  wel  wel_58925
  wel_58926  wel  wel_58926
  wel_59302  wel  wel_59302
  wel_59303  wel  wel_59303
  wel_59304  wel  wel_59304
  wel_59305  wel  wel_59305
  wel_59306  wel  wel_59306
  wel_59307  wel  wel_59307
  wel_59308  wel  wel_59308
  wel_59309  wel  wel_59309
  wel_59310  wel  wel_59310
  wel_59311  wel  wel_59311
  wel_59312  wel  wel_59312
  wel_59313  wel  wel_59313
  wel_59314  wel  wel_59314
  wel_59315  wel  wel_59315
  wel_59316  wel  wel_59316
  wel_59317  wel  wel_59317
  wel_59318  wel  wel_59318
  wel_59319  wel  wel_59319
  wel_59320  wel  wel_59320
  wel_59696  wel  wel_59696
  wel_59697  wel  wel_59697
  wel_59698  wel  wel_59698
  wel_59699  wel  wel_59699
  wel_59700  wel  wel_59700
  wel_59701  wel  wel_59701
  wel_59702  wel  wel_59702
  wel_59703  wel  wel_59703
  wel_59704  wel  wel_59704
  wel_59705  wel  wel_59705
  wel_59706  wel  wel_59706
  wel_59707  wel  wel_59707
  wel_59708  wel  wel_59708
  wel_59709  wel  wel_59709
  wel_59710  wel  wel_59710
  wel_59711  wel  wel_59711
  wel_59712  wel  wel_59712
  wel_59713  wel  wel_59713
  wel_59714  wel  wel_59714
  wel_60090  wel  wel_60090
  wel_60091  wel  wel_60091
  wel_60092  wel  wel_60092
  wel_60093  wel  wel_60093
  wel_60094  wel  wel_60094
  wel_60095  wel  wel_60095
  wel_60096  wel  wel_60096
  wel_60097  wel  wel_60097
  wel_60098  wel  wel_60098
  wel_60099  wel  wel_60099
  wel_60100  wel  wel_60100
  wel_60101  wel  wel_60101
  wel_60106  wel  wel_60106
  wel_60107  wel  wel_60107
  wel_60108  wel  wel_60108
  wel_60484  wel  wel_60484
  wel_60485  wel  wel_60485
  wel_60486  wel  wel_60486
  wel_60487  wel  wel_60487
  wel_60488  wel  wel_60488
  wel_60489  wel  wel_60489
  wel_60490  wel  wel_60490
  wel_60491  wel  wel_60491
  wel_60492  wel  wel_60492
  wel_60493  wel  wel_60493
  wel_60494  wel  wel_60494
  wel_60495  wel  wel_60495
  wel_60496  wel  wel_60496
  wel_60497  wel  wel_60497
  wel_60498  wel  wel_60498
  wel_60499  wel  wel_60499
  wel_60500  wel  wel_60500
  wel_60501  wel  wel_60501
  wel_60502  wel  wel_60502
  wel_60878  wel  wel_60878
  wel_60879  wel  wel_60879
  wel_60880  wel  wel_60880
  wel_60881  wel  wel_60881
  wel_60882  wel  wel_60882
  wel_60883  wel  wel_60883
  wel_60884  wel  wel_60884
  wel_60885  wel  wel_60885
  wel_60886  wel  wel_60886
  wel_60887  wel  wel_60887
  wel_60888  wel  wel_60888
  wel_60889  wel  wel_60889
  wel_60890  wel  wel_60890
  wel_60891  wel  wel_60891
  wel_60894  wel  wel_60894
  wel_60895  wel  wel_60895
  wel_60896  wel  wel_60896
  wel_61272  wel  wel_61272
  wel_61273  wel  wel_61273
  wel_61274  wel  wel_61274
  wel_61275  wel  wel_61275
  wel_61276  wel  wel_61276
  wel_61277  wel  wel_61277
  wel_61278  wel  wel_61278
  wel_61279  wel  wel_61279
  wel_61280  wel  wel_61280
  wel_61281  wel  wel_61281
  wel_61282  wel  wel_61282
  wel_61283  wel  wel_61283
  wel_61284  wel  wel_61284
  wel_61285  wel  wel_61285
  wel_61286  wel  wel_61286
  wel_61287  wel  wel_61287
  wel_61288  wel  wel_61288
  wel_61289  wel  wel_61289
  wel_61290  wel  wel_61290
  wel_61666  wel  wel_61666
  wel_61667  wel  wel_61667
  wel_61668  wel  wel_61668
  wel_61669  wel  wel_61669
  wel_61670  wel  wel_61670
  wel_61671  wel  wel_61671
  wel_61672  wel  wel_61672
  wel_61673  wel  wel_61673
  wel_61674  wel  wel_61674
  wel_61675  wel  wel_61675
  wel_61676  wel  wel_61676
  wel_61677  wel  wel_61677
  wel_61678  wel  wel_61678
  wel_61679  wel  wel_61679
  wel_61680  wel  wel_61680
  wel_61681  wel  wel_61681
  wel_61682  wel  wel_61682
  wel_61683  wel  wel_61683
  wel_61684  wel  wel_61684
  wel_62060  wel  wel_62060
  wel_62061  wel  wel_62061
  wel_62062  wel  wel_62062
  wel_62063  wel  wel_62063
  wel_62064  wel  wel_62064
  wel_62065  wel  wel_62065
  wel_62066  wel  wel_62066
  wel_62067  wel  wel_62067
  wel_62068  wel  wel_62068
  wel_62069  wel  wel_62069
  wel_62070  wel  wel_62070
  wel_62071  wel  wel_62071
  wel_62072  wel  wel_62072
  wel_62073  wel  wel_62073
  wel_62074  wel  wel_62074
  wel_62075  wel  wel_62075
  wel_62076  wel  wel_62076
  wel_62077  wel  wel_62077
  wel_62078  wel  wel_62078
  wel_62454  wel  wel_62454
  wel_62455  wel  wel_62455
  wel_62456  wel  wel_62456
  wel_62457  wel  wel_62457
  wel_62458  wel  wel_62458
  wel_62459  wel  wel_62459
  wel_62460  wel  wel_62460
  wel_62461  wel  wel_62461
  wel_62462  wel  wel_62462
  wel_62463  wel  wel_62463
  wel_62464  wel  wel_62464
  wel_62465  wel  wel_62465
  wel_62466  wel  wel_62466
  wel_62468  wel  wel_62468
  wel_62469  wel  wel_62469
  wel_62470  wel  wel_62470
  wel_62848  wel  wel_62848
  wel_62849  wel  wel_62849
  wel_62850  wel  wel_62850
  wel_62851  wel  wel_62851
  wel_62852  wel  wel_62852
  wel_62853  wel  wel_62853
  wel_62854  wel  wel_62854
  wel_62855  wel  wel_62855
  wel_62856  wel  wel_62856
  wel_62857  wel  wel_62857
  wel_62858  wel  wel_62858
  wel_62859  wel  wel_62859
  wel_62860  wel  wel_62860
  wel_62861  wel  wel_62861
  wel_62862  wel  wel_62862
  wel_62863  wel  wel_62863
  wel_62864  wel  wel_62864
  wel_63242  wel  wel_63242
  wel_63243  wel  wel_63243
  wel_63244  wel  wel_63244
  wel_63245  wel  wel_63245
  wel_63246  wel  wel_63246
  wel_63247  wel  wel_63247
  wel_63248  wel  wel_63248
  wel_63249  wel  wel_63249
  wel_63250  wel  wel_63250
  wel_63251  wel  wel_63251
  wel_63252  wel  wel_63252
  wel_63255  wel  wel_63255
  wel_63257  wel  wel_63257
  wel_63259  wel  wel_63259
  wel_63636  wel  wel_63636
  wel_63637  wel  wel_63637
  wel_63638  wel  wel_63638
  wel_63639  wel  wel_63639
  wel_63640  wel  wel_63640
  wel_63641  wel  wel_63641
  wel_63642  wel  wel_63642
  wel_63643  wel  wel_63643
  wel_63644  wel  wel_63644
  wel_63646  wel  wel_63646
  wel_63647  wel  wel_63647
  wel_63648  wel  wel_63648
  wel_63649  wel  wel_63649
  wel_63650  wel  wel_63650
  wel_63653  wel  wel_63653
  wel_64030  wel  wel_64030
  wel_64031  wel  wel_64031
  wel_64032  wel  wel_64032
  wel_64033  wel  wel_64033
  wel_64034  wel  wel_64034
  wel_64035  wel  wel_64035
  wel_64036  wel  wel_64036
  wel_64038  wel  wel_64038
  wel_64039  wel  wel_64039
  wel_64040  wel  wel_64040
  wel_64041  wel  wel_64041
  wel_64042  wel  wel_64042
  wel_64043  wel  wel_64043
  wel_64044  wel  wel_64044
  wel_64045  wel  wel_64045
  wel_64424  wel  wel_64424
  wel_64425  wel  wel_64425
  wel_64426  wel  wel_64426
  wel_64427  wel  wel_64427
  wel_64428  wel  wel_64428
  wel_64429  wel  wel_64429
  wel_64430  wel  wel_64430
  wel_64434  wel  wel_64434
  wel_64435  wel  wel_64435
  wel_64436  wel  wel_64436
  wel_64438  wel  wel_64438
  wel_64439  wel  wel_64439
  wel_64441  wel  wel_64441
  wel_64818  wel  wel_64818
  wel_64819  wel  wel_64819
  wel_64820  wel  wel_64820
  wel_64821  wel  wel_64821
  wel_64822  wel  wel_64822
  wel_64823  wel  wel_64823
  wel_64824  wel  wel_64824
  wel_64828  wel  wel_64828
  wel_64829  wel  wel_64829
  wel_64830  wel  wel_64830
  wel_64831  wel  wel_64831
  wel_64832  wel  wel_64832
  wel_64833  wel  wel_64833
  wel_64834  wel  wel_64834
  wel_64836  wel  wel_64836
  wel_97915  wel  wel_97915
  wel_97916  wel  wel_97916
  wel_97917  wel  wel_97917
  wel_97918  wel  wel_97918
  wel_97919  wel  wel_97919
  wel_97920  wel  wel_97920
  wel_97921  wel  wel_97921
  wel_97922  wel  wel_97922
  wel_97923  wel  wel_97923
  wel_97924  wel  wel_97924
  wel_97925  wel  wel_97925
  wel_97926  wel  wel_97926
  wel_97927  wel  wel_97927
  wel_97928  wel  wel_97928
  wel_97929  wel  wel_97929
  wel_97930  wel  wel_97930
  wel_97931  wel  wel_97931
  wel_97932  wel  wel_97932
  wel_98307  wel  wel_98307
  wel_98308  wel  wel_98308
  wel_98309  wel  wel_98309
  wel_98310  wel  wel_98310
  wel_98311  wel  wel_98311
  wel_98312  wel  wel_98312
  wel_98313  wel  wel_98313
  wel_98314  wel  wel_98314
  wel_98315  wel  wel_98315
  wel_98316  wel  wel_98316
  wel_98317  wel  wel_98317
  wel_98318  wel  wel_98318
  wel_98319  wel  wel_98319
  wel_98320  wel  wel_98320
  wel_98321  wel  wel_98321
  wel_98322  wel  wel_98322
  wel_98323  wel  wel_98323
  wel_98324  wel  wel_98324
  wel_98325  wel  wel_98325
  wel_98326  wel  wel_98326
  wel_98701  wel  wel_98701
  wel_98702  wel  wel_98702
  wel_98703  wel  wel_98703
  wel_98704  wel  wel_98704
  wel_98705  wel  wel_98705
  wel_98706  wel  wel_98706
  wel_98707  wel  wel_98707
  wel_98708  wel  wel_98708
  wel_98709  wel  wel_98709
  wel_98710  wel  wel_98710
  wel_98711  wel  wel_98711
  wel_98712  wel  wel_98712
  wel_98713  wel  wel_98713
  wel_98714  wel  wel_98714
  wel_98715  wel  wel_98715
  wel_98716  wel  wel_98716
  wel_98717  wel  wel_98717
  wel_98718  wel  wel_98718
  wel_98719  wel  wel_98719
  wel_98720  wel  wel_98720
  wel_99096  wel  wel_99096
  wel_99097  wel  wel_99097
  wel_99098  wel  wel_99098
  wel_99099  wel  wel_99099
  wel_99100  wel  wel_99100
  wel_99101  wel  wel_99101
  wel_99102  wel  wel_99102
  wel_99103  wel  wel_99103
  wel_99104  wel  wel_99104
  wel_99105  wel  wel_99105
  wel_99106  wel  wel_99106
  wel_99107  wel  wel_99107
  wel_99108  wel  wel_99108
  wel_99109  wel  wel_99109
  wel_99110  wel  wel_99110
  wel_99111  wel  wel_99111
  wel_99112  wel  wel_99112
  wel_99113  wel  wel_99113
  wel_99114  wel  wel_99114
  wel_99490  wel  wel_99490
  wel_99491  wel  wel_99491
  wel_99492  wel  wel_99492
  wel_99493  wel  wel_99493
  wel_99494  wel  wel_99494
  wel_99495  wel  wel_99495
  wel_99496  wel  wel_99496
  wel_99497  wel  wel_99497
  wel_99498  wel  wel_99498
  wel_99499  wel  wel_99499
  wel_99500  wel  wel_99500
  wel_99501  wel  wel_99501
  wel_99502  wel  wel_99502
  wel_99503  wel  wel_99503
  wel_99504  wel  wel_99504
  wel_99505  wel  wel_99505
  wel_99506  wel  wel_99506
  wel_99507  wel  wel_99507
  wel_99508  wel  wel_99508
  wel_99884  wel  wel_99884
  wel_99885  wel  wel_99885
  wel_99886  wel  wel_99886
  wel_99887  wel  wel_99887
  wel_99888  wel  wel_99888
  wel_99889  wel  wel_99889
  wel_99890  wel  wel_99890
  wel_99891  wel  wel_99891
  wel_99892  wel  wel_99892
  wel_99893  wel  wel_99893
  wel_99894  wel  wel_99894
  wel_99895  wel  wel_99895
  wel_99896  wel  wel_99896
  wel_99897  wel  wel_99897
  wel_99898  wel  wel_99898
  wel_99899  wel  wel_99899
  wel_99900  wel  wel_99900
  wel_99901  wel  wel_99901
  wel_99902  wel  wel_99902
END continuous  FILEOUT  shellmound.wel.obs.output.csv

