# shellmound model version 0.post69.dev0+g5e43358
# File generated by Flopy version 3.10.0.dev1 on 11/21/2025 at 16:36:04.
# via modflow-setup version 0.6.0 at 2025-11-21 16:36:05
BEGIN options
  LIST  shellmound.list
  PRINT_INPUT
  SAVE_FLOWS
  NEWTON
END options

BEGIN packages
  DIS6  shellmound.dis  dis
  IC6  shellmound.ic  ic
  NPF6  shellmound.npf  npf
  STO6  shellmound.sto  sto
  RCH6  shellmound.rcha  rcha_0
  OC6  shellmound.oc  oc
  CHD6  shellmound.chd  chd_0
  DRN6  shellmound.drn  drn_0
  GHB6  shellmound.ghb  ghb_0
  RIV6  shellmound.riv  riv_0
  SFR6  shellmound.sfr  sfr_0
  WEL6  shellmound.wel  wel_0
  OBS6  shellmound.obs  obs_4
END packages

