# shellmound model version 0.post69.dev0+g5e43358
# File generated by Flopy version 3.10.0.dev1 on 11/21/2025 at 16:36:04.
# via modflow-setup version 0.6.0 at 2025-11-21 16:36:05
BEGIN options
END options

BEGIN continuous  FILEOUT  shellmound.drn.obs.output.csv
  feature-18047154  drn  feature-18047154
  feature-18046236  drn  feature-18046236
END continuous  FILEOUT  shellmound.drn.obs.output.csv

