# File generated by Flopy version 3.9.3 on 09/08/2025 at 07:11:11.
BEGIN options
END options

BEGIN griddata
  strt
    CONSTANT      45.00000000
END griddata

