# File generated by Flopy version 3.9.3 on 09/08/2025 at 07:11:11.
BEGIN options
  READASARRAYS
END options

BEGIN period  1
  recharge
    CONSTANT  1.60000000E-09
END period  1

