# File generated by Flopy version 3.9.3 on 09/08/2025 at 07:11:11.
BEGIN options
  BUDGET  FILEOUT  Freyberg.bud
  HEAD  FILEOUT  Freyberg.hds
  HEAD  PRINT_FORMAT  COLUMNS  10  WIDTH  15  DIGITS  6  GENERAL
END options

BEGIN period  1
  SAVE  HEAD  ALL
  SAVE  BUDGET  ALL
  PRINT  HEAD  ALL
  PRINT  BUDGET  ALL
END period  1

