# File generated by Flopy version 3.9.3 on 09/08/2025 at 07:11:11.
BEGIN options
END options

BEGIN dimensions
  MAXBOUND  1
END dimensions

