# sm_tmr model version 0.post67.dev0+g98604a4
# File generated by Flopy version 3.10.0.dev1 on 11/19/2025 at 17:46:50.
# via modflow-setup version 0.6.0 at 2025-11-19 17:46:51
BEGIN options
END options

BEGIN continuous  FILEOUT  sm_tmr.riv.obs.output.csv
  'Tallahatchie River'  riv  'Tallahatchie River'
  'Yazoo River'  riv  'Yazoo River'
END continuous  FILEOUT  sm_tmr.riv.obs.output.csv

