# File generated by Flopy version 3.9.1 on 07/16/2025 at 07:23:18.
BEGIN options
END options

BEGIN dimensions
  MAXBOUND  1
END dimensions

