# File generated by Flopy version 3.9.1 on 07/15/2025 at 19:35:35.
BEGIN options
END options

BEGIN griddata
  strt
    CONSTANT      45.00000000
END griddata

