# File generated by Flopy version 3.9.1 on 07/15/2025 at 19:35:35.
BEGIN options
  READASARRAYS
END options

BEGIN period  1
  recharge
    CONSTANT  1.60000000E-09
END period  1

