# File generated by Flopy version 3.8.2 on 11/14/2025 at 15:50:27.
BEGIN options
END options

BEGIN griddata
  icelltype
    CONSTANT  1
  k
    CONSTANT       0.00304800
END griddata

