# File generated by Flopy version 3.8.2 on 11/14/2025 at 15:50:27.
BEGIN options
END options

BEGIN packages
  DIS6  e12B.dis  dis
  NPF6  e12B.npf  npf
  STO6  e12B.sto  sto
  IC6  e12B.ic  ic
  OC6  e12B.oc  oc
  SFR6  e12B.sfr  sfr-1
END packages

