# File generated by Flopy version 3.8.2 on 11/14/2025 at 15:50:27.
BEGIN options
END options

BEGIN griddata
  iconvert
    CONSTANT  1
  ss
    CONSTANT  1.00000000E-07
  sy
    CONSTANT       0.25000000
END griddata

BEGIN period  1
  TRANSIENT
END period  1

