# File generated by Flopy version 3.8.2 on 11/14/2025 at 15:50:27.
BEGIN options
END options

BEGIN timing
  TDIS6  e12B.tdis
END timing

BEGIN models
  gwf6  e12B.nam  e12B
END models

BEGIN exchanges
END exchanges

BEGIN solutiongroup  1
  ims6  e12B.ims  e12B
END solutiongroup  1

