# shellmound model version 0.post3.dev0+ge07a693
# File generated by Flopy version 3.10.0.dev1 on 11/19/2025 at 17:14:40.
# via modflow-setup version 0.6.0 at 2025-11-19 17:14:41
BEGIN options
  PRINT_OPTION  all
  COMPLEXITY  moderate
  CSV_OUTER_OUTPUT  FILEOUT  solver_outer_out.csv
END options

BEGIN nonlinear
  OUTER_DVCLOSE       0.10000000
  OUTER_MAXIMUM  200
  UNDER_RELAXATION  dbd
  UNDER_RELAXATION_GAMMA       0.00000000
  UNDER_RELAXATION_THETA       0.70000000
  UNDER_RELAXATION_KAPPA       0.10000000
  UNDER_RELAXATION_MOMENTUM       0.00000000
  BACKTRACKING_NUMBER  0
END nonlinear

BEGIN linear
  INNER_MAXIMUM  100
  INNER_DVCLOSE       0.01000000
  inner_rclose  1.00000000E-04  relative_rclose
  LINEAR_ACCELERATION  bicgstab
  RELAXATION_FACTOR       0.00000000
  PRECONDITIONER_LEVELS  7
  PRECONDITIONER_DROP_TOLERANCE       0.00100000
  NUMBER_ORTHOGONALIZATIONS  0
  SCALING_METHOD  none
  REORDERING_METHOD  none
END linear

