# shellmound model version 0.post3.dev0+ge07a693
# File generated by Flopy version 3.10.0.dev1 on 11/19/2025 at 17:14:41.
# via modflow-setup version 0.6.0 at 2025-11-19 17:14:41
BEGIN options
END options

BEGIN continuous  FILEOUT  shellmound.riv.obs.output.csv
  'Tallahatchie River'  riv  'Tallahatchie River'
  'Yazoo River'  riv  'Yazoo River'
  'Lake Henry'  riv  'Lake Henry'
END continuous  FILEOUT  shellmound.riv.obs.output.csv

