# shellmound model version 0.post3.dev0+ge07a693
# File generated by Flopy version 3.10.0.dev1 on 11/19/2025 at 17:14:41.
# via modflow-setup version 0.6.0 at 2025-11-19 17:14:41
BEGIN options
  DIGITS  10
  PRINT_INPUT
END options

BEGIN continuous  FILEOUT  shellmound.head.obs
  usgs:333240090155001  HEAD  4 26 28
  usgs:333240090155001  HEAD  5 26 28
  usgs:333240090155001  HEAD  6 26 28
  usgs:333240090155001  HEAD  7 26 28
  usgs:333240090155001  HEAD  8 26 28
  usgs:333240090155001  HEAD  9 26 28
  usgs:333240090155001  HEAD  10 26 28
  usgs:333240090155001  HEAD  11 26 28
  usgs:333240090155001  HEAD  12 26 28
  usgs:333240090155001  HEAD  13 26 28
  usgs:333350090215801  HEAD  4 24 19
  usgs:333350090215801  HEAD  5 24 19
  usgs:333350090215801  HEAD  6 24 19
  usgs:333350090215801  HEAD  7 24 19
  usgs:333350090215801  HEAD  8 24 19
  usgs:333350090215801  HEAD  9 24 19
  usgs:333350090215801  HEAD  10 24 19
  usgs:333350090215801  HEAD  11 24 19
  usgs:333350090215801  HEAD  12 24 19
  usgs:333350090215801  HEAD  13 24 19
  usgs:333351090291402  HEAD  1 25 8
  usgs:333351090291402  HEAD  2 25 8
  usgs:333351090291402  HEAD  3 25 8
  usgs:333351090291402  HEAD  4 25 8
  usgs:333351090291402  HEAD  5 25 8
  usgs:333351090291402  HEAD  6 25 8
  usgs:333351090291402  HEAD  7 25 8
  usgs:333351090291402  HEAD  8 25 8
  usgs:333351090291402  HEAD  9 25 8
  usgs:333351090291402  HEAD  10 25 8
  usgs:333351090291402  HEAD  11 25 8
  usgs:333351090291402  HEAD  12 25 8
  usgs:333351090291402  HEAD  13 25 8
  usgs:333411090281501  HEAD  1 24 9
  usgs:333411090281501  HEAD  2 24 9
  usgs:333411090281501  HEAD  3 24 9
  usgs:333411090281501  HEAD  4 24 9
  usgs:333411090281501  HEAD  5 24 9
  usgs:333411090281501  HEAD  6 24 9
  usgs:333411090281501  HEAD  7 24 9
  usgs:333411090281501  HEAD  8 24 9
  usgs:333411090281501  HEAD  9 24 9
  usgs:333411090281501  HEAD  10 24 9
  usgs:333411090281501  HEAD  11 24 9
  usgs:333411090281501  HEAD  12 24 9
  usgs:333411090281501  HEAD  13 24 9
  usgs:333427090294201  HEAD  1 24 7
  usgs:333427090294201  HEAD  2 24 7
  usgs:333427090294201  HEAD  3 24 7
  usgs:333427090294201  HEAD  4 24 7
  usgs:333427090294201  HEAD  5 24 7
  usgs:333427090294201  HEAD  6 24 7
  usgs:333427090294201  HEAD  7 24 7
  usgs:333427090294201  HEAD  8 24 7
  usgs:333427090294201  HEAD  9 24 7
  usgs:333427090294201  HEAD  10 24 7
  usgs:333427090294201  HEAD  11 24 7
  usgs:333427090294201  HEAD  12 24 7
  usgs:333427090294201  HEAD  13 24 7
  usgs:333427090294202  HEAD  1 24 7
  usgs:333427090294202  HEAD  2 24 7
  usgs:333427090294202  HEAD  3 24 7
  usgs:333427090294202  HEAD  4 24 7
  usgs:333427090294202  HEAD  5 24 7
  usgs:333427090294202  HEAD  6 24 7
  usgs:333427090294202  HEAD  7 24 7
  usgs:333427090294202  HEAD  8 24 7
  usgs:333427090294202  HEAD  9 24 7
  usgs:333427090294202  HEAD  10 24 7
  usgs:333427090294202  HEAD  11 24 7
  usgs:333427090294202  HEAD  12 24 7
  usgs:333427090294202  HEAD  13 24 7
  usgs:333508090313601  HEAD  1 23 4
  usgs:333508090313601  HEAD  2 23 4
  usgs:333508090313601  HEAD  3 23 4
  usgs:333508090313601  HEAD  4 23 4
  usgs:333508090313601  HEAD  5 23 4
  usgs:333508090313601  HEAD  6 23 4
  usgs:333508090313601  HEAD  7 23 4
  usgs:333508090313601  HEAD  8 23 4
  usgs:333508090313601  HEAD  9 23 4
  usgs:333508090313601  HEAD  10 23 4
  usgs:333508090313601  HEAD  11 23 4
  usgs:333508090313601  HEAD  12 23 4
  usgs:333508090313601  HEAD  13 23 4
  usgs:333600090205401  HEAD  4 20 20
  usgs:333600090205401  HEAD  5 20 20
  usgs:333600090205401  HEAD  6 20 20
  usgs:333600090205401  HEAD  7 20 20
  usgs:333600090205401  HEAD  8 20 20
  usgs:333600090205401  HEAD  9 20 20
  usgs:333600090205401  HEAD  10 20 20
  usgs:333600090205401  HEAD  11 20 20
  usgs:333600090205401  HEAD  12 20 20
  usgs:333600090205401  HEAD  13 20 20
  usgs:333606090194801  HEAD  4 20 22
  usgs:333606090194801  HEAD  5 20 22
  usgs:333606090194801  HEAD  6 20 22
  usgs:333606090194801  HEAD  7 20 22
  usgs:333606090194801  HEAD  8 20 22
  usgs:333606090194801  HEAD  9 20 22
  usgs:333606090194801  HEAD  10 20 22
  usgs:333606090194801  HEAD  11 20 22
  usgs:333606090194801  HEAD  12 20 22
  usgs:333606090194801  HEAD  13 20 22
  usgs:333611090215901  HEAD  4 20 18
  usgs:333611090215901  HEAD  5 20 18
  usgs:333611090215901  HEAD  6 20 18
  usgs:333611090215901  HEAD  7 20 18
  usgs:333611090215901  HEAD  8 20 18
  usgs:333611090215901  HEAD  9 20 18
  usgs:333611090215901  HEAD  10 20 18
  usgs:333611090215901  HEAD  11 20 18
  usgs:333611090215901  HEAD  12 20 18
  usgs:333611090215901  HEAD  13 20 18
  usgs:333628090313501  HEAD  1 20 4
  usgs:333628090313501  HEAD  2 20 4
  usgs:333628090313501  HEAD  3 20 4
  usgs:333628090313501  HEAD  4 20 4
  usgs:333628090313501  HEAD  5 20 4
  usgs:333628090313501  HEAD  6 20 4
  usgs:333628090313501  HEAD  7 20 4
  usgs:333628090313501  HEAD  8 20 4
  usgs:333628090313501  HEAD  9 20 4
  usgs:333628090313501  HEAD  10 20 4
  usgs:333628090313501  HEAD  11 20 4
  usgs:333628090313501  HEAD  12 20 4
  usgs:333628090313501  HEAD  13 20 4
  usgs:333629090292901  HEAD  1 20 7
  usgs:333629090292901  HEAD  2 20 7
  usgs:333629090292901  HEAD  3 20 7
  usgs:333629090292901  HEAD  4 20 7
  usgs:333629090292901  HEAD  5 20 7
  usgs:333629090292901  HEAD  6 20 7
  usgs:333629090292901  HEAD  7 20 7
  usgs:333629090292901  HEAD  8 20 7
  usgs:333629090292901  HEAD  9 20 7
  usgs:333629090292901  HEAD  10 20 7
  usgs:333629090292901  HEAD  11 20 7
  usgs:333629090292901  HEAD  12 20 7
  usgs:333629090292901  HEAD  13 20 7
  usgs:333629090313501  HEAD  1 20 4
  usgs:333629090313501  HEAD  2 20 4
  usgs:333629090313501  HEAD  3 20 4
  usgs:333629090313501  HEAD  4 20 4
  usgs:333629090313501  HEAD  5 20 4
  usgs:333629090313501  HEAD  6 20 4
  usgs:333629090313501  HEAD  7 20 4
  usgs:333629090313501  HEAD  8 20 4
  usgs:333629090313501  HEAD  9 20 4
  usgs:333629090313501  HEAD  10 20 4
  usgs:333629090313501  HEAD  11 20 4
  usgs:333629090313501  HEAD  12 20 4
  usgs:333629090313501  HEAD  13 20 4
  usgs:333635090202901  HEAD  4 19 21
  usgs:333635090202901  HEAD  5 19 21
  usgs:333635090202901  HEAD  6 19 21
  usgs:333635090202901  HEAD  7 19 21
  usgs:333635090202901  HEAD  8 19 21
  usgs:333635090202901  HEAD  9 19 21
  usgs:333635090202901  HEAD  10 19 21
  usgs:333635090202901  HEAD  11 19 21
  usgs:333635090202901  HEAD  12 19 21
  usgs:333635090202901  HEAD  13 19 21
  usgs:333653090240201  HEAD  4 19 15
  usgs:333653090240201  HEAD  5 19 15
  usgs:333653090240201  HEAD  6 19 15
  usgs:333653090240201  HEAD  7 19 15
  usgs:333653090240201  HEAD  8 19 15
  usgs:333653090240201  HEAD  9 19 15
  usgs:333653090240201  HEAD  10 19 15
  usgs:333653090240201  HEAD  11 19 15
  usgs:333653090240201  HEAD  12 19 15
  usgs:333653090240201  HEAD  13 19 15
  usgs:333742090303801  HEAD  1 18 4
  usgs:333742090303801  HEAD  2 18 4
  usgs:333742090303801  HEAD  3 18 4
  usgs:333742090303801  HEAD  4 18 4
  usgs:333742090303801  HEAD  5 18 4
  usgs:333742090303801  HEAD  6 18 4
  usgs:333742090303801  HEAD  7 18 4
  usgs:333742090303801  HEAD  8 18 4
  usgs:333742090303801  HEAD  9 18 4
  usgs:333742090303801  HEAD  10 18 4
  usgs:333742090303801  HEAD  11 18 4
  usgs:333742090303801  HEAD  12 18 4
  usgs:333742090303801  HEAD  13 18 4
  usgs:333845090251401  HEAD  4 15 13
  usgs:333845090251401  HEAD  5 15 13
  usgs:333845090251401  HEAD  6 15 13
  usgs:333845090251401  HEAD  7 15 13
  usgs:333845090251401  HEAD  8 15 13
  usgs:333845090251401  HEAD  9 15 13
  usgs:333845090251401  HEAD  10 15 13
  usgs:333845090251401  HEAD  11 15 13
  usgs:333845090251401  HEAD  12 15 13
  usgs:333845090251401  HEAD  13 15 13
  usgs:333950090230001  HEAD  4 13 16
  usgs:333950090230001  HEAD  5 13 16
  usgs:333950090230001  HEAD  6 13 16
  usgs:333950090230001  HEAD  7 13 16
  usgs:333950090230001  HEAD  8 13 16
  usgs:333950090230001  HEAD  9 13 16
  usgs:333950090230001  HEAD  10 13 16
  usgs:333950090230001  HEAD  11 13 16
  usgs:333950090230001  HEAD  12 13 16
  usgs:333950090230001  HEAD  13 13 16
  usgs:334412090270301  HEAD  4 5 10
  usgs:334412090270301  HEAD  5 5 10
  usgs:334412090270301  HEAD  6 5 10
  usgs:334412090270301  HEAD  7 5 10
  usgs:334412090270301  HEAD  8 5 10
  usgs:334412090270301  HEAD  9 5 10
  usgs:334412090270301  HEAD  10 5 10
  usgs:334412090270301  HEAD  11 5 10
  usgs:334412090270301  HEAD  12 5 10
  usgs:334412090270301  HEAD  13 5 10
  usgs:334413090240901  HEAD  4 5 14
  usgs:334413090240901  HEAD  5 5 14
  usgs:334413090240901  HEAD  6 5 14
  usgs:334413090240901  HEAD  7 5 14
  usgs:334413090240901  HEAD  8 5 14
  usgs:334413090240901  HEAD  9 5 14
  usgs:334413090240901  HEAD  10 5 14
  usgs:334413090240901  HEAD  11 5 14
  usgs:334413090240901  HEAD  12 5 14
  usgs:334413090240901  HEAD  13 5 14
  usgs:334415090241401  HEAD  4 5 14
  usgs:334415090241401  HEAD  5 5 14
  usgs:334415090241401  HEAD  6 5 14
  usgs:334415090241401  HEAD  7 5 14
  usgs:334415090241401  HEAD  8 5 14
  usgs:334415090241401  HEAD  9 5 14
  usgs:334415090241401  HEAD  10 5 14
  usgs:334415090241401  HEAD  11 5 14
  usgs:334415090241401  HEAD  12 5 14
  usgs:334415090241401  HEAD  13 5 14
  usgs:334420090291001  HEAD  4 5 7
  usgs:334420090291001  HEAD  5 5 7
  usgs:334420090291001  HEAD  6 5 7
  usgs:334420090291001  HEAD  7 5 7
  usgs:334420090291001  HEAD  8 5 7
  usgs:334420090291001  HEAD  9 5 7
  usgs:334420090291001  HEAD  10 5 7
  usgs:334420090291001  HEAD  11 5 7
  usgs:334420090291001  HEAD  12 5 7
  usgs:334420090291001  HEAD  13 5 7
  usgs:334429090210101  HEAD  4 4 19
  usgs:334429090210101  HEAD  5 4 19
  usgs:334429090210101  HEAD  6 4 19
  usgs:334429090210101  HEAD  7 4 19
  usgs:334429090210101  HEAD  8 4 19
  usgs:334429090210101  HEAD  9 4 19
  usgs:334429090210101  HEAD  10 4 19
  usgs:334429090210101  HEAD  11 4 19
  usgs:334429090210101  HEAD  12 4 19
  usgs:334429090210101  HEAD  13 4 19
  usgs:334538090303801  HEAD  1 3 4
  usgs:334538090303801  HEAD  2 3 4
  usgs:334538090303801  HEAD  3 3 4
  usgs:334538090303801  HEAD  4 3 4
  usgs:334538090303801  HEAD  5 3 4
  usgs:334538090303801  HEAD  6 3 4
  usgs:334538090303801  HEAD  7 3 4
  usgs:334538090303801  HEAD  8 3 4
  usgs:334538090303801  HEAD  9 3 4
  usgs:334538090303801  HEAD  10 3 4
  usgs:334538090303801  HEAD  11 3 4
  usgs:334538090303801  HEAD  12 3 4
  usgs:334538090303801  HEAD  13 3 4
  usgs:334630090274201  HEAD  4 1 9
  usgs:334630090274201  HEAD  5 1 9
  usgs:334630090274201  HEAD  6 1 9
  usgs:334630090274201  HEAD  7 1 9
  usgs:334630090274201  HEAD  8 1 9
  usgs:334630090274201  HEAD  9 1 9
  usgs:334630090274201  HEAD  10 1 9
  usgs:334630090274201  HEAD  11 1 9
  usgs:334630090274201  HEAD  12 1 9
  usgs:334630090274201  HEAD  13 1 9
END continuous  FILEOUT  shellmound.head.obs

