# plsnt_lgr_inset model version 0.post3.dev0+ge07a693
# Pleasant Lake test case version 0.1.post3.dev0+ge07a693
# File generated by Flopy version 3.10.0.dev1 on 11/19/2025 at 16:36:00.
# via modflow-setup version 0.6.0 at 2025-11-19 16:36:00
BEGIN options
  auxiliary  angldegx  cdist
  MVR6  FILEIN  pleasant_lgr.mvr
END options

BEGIN dimensions
  NEXG  1390
END dimensions

BEGIN exchangedata
  1 6 4  1 1 1  1     100.00000000      20.00000000      40.00000000       0.00000000     144.22205102
  1 5 5  1 1 1  1     100.00000000      20.00000000      40.00000000     270.00000000     144.22205102
  1 5 5  1 1 2  1     100.00000000      20.00000000      40.00000000     270.00000000     126.49110641
  1 5 5  1 1 3  1     100.00000000      20.00000000      40.00000000     270.00000000     120.00000000
  1 5 5  1 1 4  1     100.00000000      20.00000000      40.00000000     270.00000000     126.49110641
  1 5 5  1 1 5  1     100.00000000      20.00000000      40.00000000     270.00000000     144.22205102
  1 5 6  1 1 6  1     100.00000000      20.00000000      40.00000000     270.00000000     144.22205102
  1 5 6  1 1 7  1     100.00000000      20.00000000      40.00000000     270.00000000     126.49110641
  1 5 6  1 1 8  1     100.00000000      20.00000000      40.00000000     270.00000000     120.00000000
  1 5 6  1 1 9  1     100.00000000      20.00000000      40.00000000     270.00000000     126.49110641
  1 5 6  1 1 10  1     100.00000000      20.00000000      40.00000000     270.00000000     144.22205102
  1 5 7  1 1 11  1     100.00000000      20.00000000      40.00000000     270.00000000     144.22205102
  1 5 7  1 1 12  1     100.00000000      20.00000000      40.00000000     270.00000000     126.49110641
  1 5 7  1 1 13  1     100.00000000      20.00000000      40.00000000     270.00000000     120.00000000
  1 5 7  1 1 14  1     100.00000000      20.00000000      40.00000000     270.00000000     126.49110641
  1 5 7  1 1 15  1     100.00000000      20.00000000      40.00000000     270.00000000     144.22205102
  1 5 8  1 1 16  1     100.00000000      20.00000000      40.00000000     270.00000000     144.22205102
  1 5 8  1 1 17  1     100.00000000      20.00000000      40.00000000     270.00000000     126.49110641
  1 5 8  1 1 18  1     100.00000000      20.00000000      40.00000000     270.00000000     120.00000000
  1 5 8  1 1 19  1     100.00000000      20.00000000      40.00000000     270.00000000     126.49110641
  1 5 8  1 1 20  1     100.00000000      20.00000000      40.00000000     270.00000000     144.22205102
  1 5 9  1 1 21  1     100.00000000      20.00000000      40.00000000     270.00000000     144.22205102
  1 5 9  1 1 22  1     100.00000000      20.00000000      40.00000000     270.00000000     126.49110641
  1 5 9  1 1 23  1     100.00000000      20.00000000      40.00000000     270.00000000     120.00000000
  1 5 9  1 1 24  1     100.00000000      20.00000000      40.00000000     270.00000000     126.49110641
  1 5 9  1 1 25  1     100.00000000      20.00000000      40.00000000     270.00000000     144.22205102
  1 5 10  1 1 26  1     100.00000000      20.00000000      40.00000000     270.00000000     144.22205102
  1 5 10  1 1 27  1     100.00000000      20.00000000      40.00000000     270.00000000     126.49110641
  1 5 10  1 1 28  1     100.00000000      20.00000000      40.00000000     270.00000000     120.00000000
  1 5 10  1 1 29  1     100.00000000      20.00000000      40.00000000     270.00000000     126.49110641
  1 5 10  1 1 30  1     100.00000000      20.00000000      40.00000000     270.00000000     144.22205102
  1 5 11  1 1 31  1     100.00000000      20.00000000      40.00000000     270.00000000     144.22205102
  1 5 11  1 1 32  1     100.00000000      20.00000000      40.00000000     270.00000000     126.49110641
  1 5 11  1 1 33  1     100.00000000      20.00000000      40.00000000     270.00000000     120.00000000
  1 5 11  1 1 34  1     100.00000000      20.00000000      40.00000000     270.00000000     126.49110641
  1 5 11  1 1 35  1     100.00000000      20.00000000      40.00000000     270.00000000     144.22205102
  1 5 12  1 1 36  1     100.00000000      20.00000000      40.00000000     270.00000000     144.22205102
  1 5 12  1 1 37  1     100.00000000      20.00000000      40.00000000     270.00000000     126.49110641
  1 5 12  1 1 38  1     100.00000000      20.00000000      40.00000000     270.00000000     120.00000000
  1 5 12  1 1 39  1     100.00000000      20.00000000      40.00000000     270.00000000     126.49110641
  1 5 12  1 1 40  1     100.00000000      20.00000000      40.00000000     270.00000000     144.22205102
  1 5 13  1 1 41  1     100.00000000      20.00000000      40.00000000     270.00000000     144.22205102
  1 5 13  1 1 42  1     100.00000000      20.00000000      40.00000000     270.00000000     126.49110641
  1 5 13  1 1 43  1     100.00000000      20.00000000      40.00000000     270.00000000     120.00000000
  1 5 13  1 1 44  1     100.00000000      20.00000000      40.00000000     270.00000000     126.49110641
  1 5 13  1 1 45  1     100.00000000      20.00000000      40.00000000     270.00000000     144.22205102
  1 5 14  1 1 46  1     100.00000000      20.00000000      40.00000000     270.00000000     144.22205102
  1 5 14  1 1 47  1     100.00000000      20.00000000      40.00000000     270.00000000     126.49110641
  1 5 14  1 1 48  1     100.00000000      20.00000000      40.00000000     270.00000000     120.00000000
  1 5 14  1 1 49  1     100.00000000      20.00000000      40.00000000     270.00000000     126.49110641
  1 5 14  1 1 50  1     100.00000000      20.00000000      40.00000000     270.00000000     144.22205102
  1 5 15  1 1 51  1     100.00000000      20.00000000      40.00000000     270.00000000     144.22205102
  1 5 15  1 1 52  1     100.00000000      20.00000000      40.00000000     270.00000000     126.49110641
  1 5 15  1 1 53  1     100.00000000      20.00000000      40.00000000     270.00000000     120.00000000
  1 5 15  1 1 54  1     100.00000000      20.00000000      40.00000000     270.00000000     126.49110641
  1 5 15  1 1 55  1     100.00000000      20.00000000      40.00000000     270.00000000     144.22205102
  1 5 16  1 1 56  1     100.00000000      20.00000000      40.00000000     270.00000000     144.22205102
  1 5 16  1 1 57  1     100.00000000      20.00000000      40.00000000     270.00000000     126.49110641
  1 5 16  1 1 58  1     100.00000000      20.00000000      40.00000000     270.00000000     120.00000000
  1 5 16  1 1 59  1     100.00000000      20.00000000      40.00000000     270.00000000     126.49110641
  1 5 16  1 1 60  1     100.00000000      20.00000000      40.00000000     270.00000000     144.22205102
  1 5 17  1 1 61  1     100.00000000      20.00000000      40.00000000     270.00000000     144.22205102
  1 5 17  1 1 62  1     100.00000000      20.00000000      40.00000000     270.00000000     126.49110641
  1 5 17  1 1 63  1     100.00000000      20.00000000      40.00000000     270.00000000     120.00000000
  1 5 17  1 1 64  1     100.00000000      20.00000000      40.00000000     270.00000000     126.49110641
  1 5 17  1 1 65  1     100.00000000      20.00000000      40.00000000     270.00000000     144.22205102
  1 5 18  1 1 66  1     100.00000000      20.00000000      40.00000000     270.00000000     144.22205102
  1 5 18  1 1 67  1     100.00000000      20.00000000      40.00000000     270.00000000     126.49110641
  1 5 18  1 1 68  1     100.00000000      20.00000000      40.00000000     270.00000000     120.00000000
  1 5 18  1 1 69  1     100.00000000      20.00000000      40.00000000     270.00000000     126.49110641
  1 5 18  1 1 70  1     100.00000000      20.00000000      40.00000000     270.00000000     144.22205102
  1 5 19  1 1 71  1     100.00000000      20.00000000      40.00000000     270.00000000     144.22205102
  1 5 19  1 1 72  1     100.00000000      20.00000000      40.00000000     270.00000000     126.49110641
  1 5 19  1 1 73  1     100.00000000      20.00000000      40.00000000     270.00000000     120.00000000
  1 5 19  1 1 74  1     100.00000000      20.00000000      40.00000000     270.00000000     126.49110641
  1 5 19  1 1 75  1     100.00000000      20.00000000      40.00000000     270.00000000     144.22205102
  1 5 20  1 1 76  1     100.00000000      20.00000000      40.00000000     270.00000000     144.22205102
  1 5 20  1 1 77  1     100.00000000      20.00000000      40.00000000     270.00000000     126.49110641
  1 5 20  1 1 78  1     100.00000000      20.00000000      40.00000000     270.00000000     120.00000000
  1 5 20  1 1 79  1     100.00000000      20.00000000      40.00000000     270.00000000     126.49110641
  1 5 20  1 1 80  1     100.00000000      20.00000000      40.00000000     270.00000000     144.22205102
  1 5 21  1 1 81  1     100.00000000      20.00000000      40.00000000     270.00000000     144.22205102
  1 5 21  1 1 82  1     100.00000000      20.00000000      40.00000000     270.00000000     126.49110641
  1 5 21  1 1 83  1     100.00000000      20.00000000      40.00000000     270.00000000     120.00000000
  1 5 21  1 1 84  1     100.00000000      20.00000000      40.00000000     270.00000000     126.49110641
  1 6 22  1 1 85  1     100.00000000      20.00000000      40.00000000     180.00000000     144.22205102
  1 5 21  1 1 85  1     100.00000000      20.00000000      40.00000000     270.00000000     144.22205102
  1 6 4  1 2 1  1     100.00000000      20.00000000      40.00000000       0.00000000     126.49110641
  1 6 22  1 2 85  1     100.00000000      20.00000000      40.00000000     180.00000000     126.49110641
  1 6 4  1 3 1  1     100.00000000      20.00000000      40.00000000       0.00000000     120.00000000
  1 6 22  1 3 85  1     100.00000000      20.00000000      40.00000000     180.00000000     120.00000000
  1 6 4  1 4 1  1     100.00000000      20.00000000      40.00000000       0.00000000     126.49110641
  1 6 22  1 4 85  1     100.00000000      20.00000000      40.00000000     180.00000000     126.49110641
  1 6 4  1 5 1  1     100.00000000      20.00000000      40.00000000       0.00000000     144.22205102
  1 6 22  1 5 85  1     100.00000000      20.00000000      40.00000000     180.00000000     144.22205102
  1 7 4  1 6 1  1     100.00000000      20.00000000      40.00000000       0.00000000     144.22205102
  1 7 22  1 6 85  1     100.00000000      20.00000000      40.00000000     180.00000000     144.22205102
  1 7 4  1 7 1  1     100.00000000      20.00000000      40.00000000       0.00000000     126.49110641
  1 7 22  1 7 85  1     100.00000000      20.00000000      40.00000000     180.00000000     126.49110641
  1 7 4  1 8 1  1     100.00000000      20.00000000      40.00000000       0.00000000     120.00000000
  1 7 22  1 8 85  1     100.00000000      20.00000000      40.00000000     180.00000000     120.00000000
  1 7 4  1 9 1  1     100.00000000      20.00000000      40.00000000       0.00000000     126.49110641
  1 7 22  1 9 85  1     100.00000000      20.00000000      40.00000000     180.00000000     126.49110641
  1 7 4  1 10 1  1     100.00000000      20.00000000      40.00000000       0.00000000     144.22205102
  1 7 22  1 10 85  1     100.00000000      20.00000000      40.00000000     180.00000000     144.22205102
  1 8 4  1 11 1  1     100.00000000      20.00000000      40.00000000       0.00000000     144.22205102
  1 8 22  1 11 85  1     100.00000000      20.00000000      40.00000000     180.00000000     144.22205102
  1 8 4  1 12 1  1     100.00000000      20.00000000      40.00000000       0.00000000     126.49110641
  1 8 22  1 12 85  1     100.00000000      20.00000000      40.00000000     180.00000000     126.49110641
  1 8 4  1 13 1  1     100.00000000      20.00000000      40.00000000       0.00000000     120.00000000
  1 8 22  1 13 85  1     100.00000000      20.00000000      40.00000000     180.00000000     120.00000000
  1 8 4  1 14 1  1     100.00000000      20.00000000      40.00000000       0.00000000     126.49110641
  1 8 22  1 14 85  1     100.00000000      20.00000000      40.00000000     180.00000000     126.49110641
  1 8 4  1 15 1  1     100.00000000      20.00000000      40.00000000       0.00000000     144.22205102
  1 8 22  1 15 85  1     100.00000000      20.00000000      40.00000000     180.00000000     144.22205102
  1 9 4  1 16 1  1     100.00000000      20.00000000      40.00000000       0.00000000     144.22205102
  1 9 22  1 16 85  1     100.00000000      20.00000000      40.00000000     180.00000000     144.22205102
  1 9 4  1 17 1  1     100.00000000      20.00000000      40.00000000       0.00000000     126.49110641
  1 9 22  1 17 85  1     100.00000000      20.00000000      40.00000000     180.00000000     126.49110641
  1 9 4  1 18 1  1     100.00000000      20.00000000      40.00000000       0.00000000     120.00000000
  1 9 22  1 18 85  1     100.00000000      20.00000000      40.00000000     180.00000000     120.00000000
  1 9 4  1 19 1  1     100.00000000      20.00000000      40.00000000       0.00000000     126.49110641
  1 9 22  1 19 85  1     100.00000000      20.00000000      40.00000000     180.00000000     126.49110641
  1 9 4  1 20 1  1     100.00000000      20.00000000      40.00000000       0.00000000     144.22205102
  1 9 22  1 20 85  1     100.00000000      20.00000000      40.00000000     180.00000000     144.22205102
  1 10 4  1 21 1  1     100.00000000      20.00000000      40.00000000       0.00000000     144.22205102
  1 10 22  1 21 85  1     100.00000000      20.00000000      40.00000000     180.00000000     144.22205102
  1 10 4  1 22 1  1     100.00000000      20.00000000      40.00000000       0.00000000     126.49110641
  1 10 22  1 22 85  1     100.00000000      20.00000000      40.00000000     180.00000000     126.49110641
  1 10 4  1 23 1  1     100.00000000      20.00000000      40.00000000       0.00000000     120.00000000
  1 10 22  1 23 85  1     100.00000000      20.00000000      40.00000000     180.00000000     120.00000000
  1 10 4  1 24 1  1     100.00000000      20.00000000      40.00000000       0.00000000     126.49110641
  1 10 22  1 24 85  1     100.00000000      20.00000000      40.00000000     180.00000000     126.49110641
  1 10 4  1 25 1  1     100.00000000      20.00000000      40.00000000       0.00000000     144.22205102
  1 10 22  1 25 85  1     100.00000000      20.00000000      40.00000000     180.00000000     144.22205102
  1 11 4  1 26 1  1     100.00000000      20.00000000      40.00000000       0.00000000     144.22205102
  1 11 22  1 26 85  1     100.00000000      20.00000000      40.00000000     180.00000000     144.22205102
  1 11 4  1 27 1  1     100.00000000      20.00000000      40.00000000       0.00000000     126.49110641
  1 11 22  1 27 85  1     100.00000000      20.00000000      40.00000000     180.00000000     126.49110641
  1 11 4  1 28 1  1     100.00000000      20.00000000      40.00000000       0.00000000     120.00000000
  1 11 22  1 28 85  1     100.00000000      20.00000000      40.00000000     180.00000000     120.00000000
  1 11 4  1 29 1  1     100.00000000      20.00000000      40.00000000       0.00000000     126.49110641
  1 11 22  1 29 85  1     100.00000000      20.00000000      40.00000000     180.00000000     126.49110641
  1 11 4  1 30 1  1     100.00000000      20.00000000      40.00000000       0.00000000     144.22205102
  1 11 22  1 30 85  1     100.00000000      20.00000000      40.00000000     180.00000000     144.22205102
  1 12 4  1 31 1  1     100.00000000      20.00000000      40.00000000       0.00000000     144.22205102
  1 12 22  1 31 85  1     100.00000000      20.00000000      40.00000000     180.00000000     144.22205102
  1 12 4  1 32 1  1     100.00000000      20.00000000      40.00000000       0.00000000     126.49110641
  1 12 22  1 32 85  1     100.00000000      20.00000000      40.00000000     180.00000000     126.49110641
  1 12 4  1 33 1  1     100.00000000      20.00000000      40.00000000       0.00000000     120.00000000
  1 12 22  1 33 85  1     100.00000000      20.00000000      40.00000000     180.00000000     120.00000000
  1 12 4  1 34 1  1     100.00000000      20.00000000      40.00000000       0.00000000     126.49110641
  1 12 22  1 34 85  1     100.00000000      20.00000000      40.00000000     180.00000000     126.49110641
  1 12 4  1 35 1  1     100.00000000      20.00000000      40.00000000       0.00000000     144.22205102
  1 12 22  1 35 85  1     100.00000000      20.00000000      40.00000000     180.00000000     144.22205102
  1 13 4  1 36 1  1     100.00000000      20.00000000      40.00000000       0.00000000     144.22205102
  1 13 22  1 36 85  1     100.00000000      20.00000000      40.00000000     180.00000000     144.22205102
  1 13 4  1 37 1  1     100.00000000      20.00000000      40.00000000       0.00000000     126.49110641
  1 13 22  1 37 85  1     100.00000000      20.00000000      40.00000000     180.00000000     126.49110641
  1 13 4  1 38 1  1     100.00000000      20.00000000      40.00000000       0.00000000     120.00000000
  1 13 22  1 38 85  1     100.00000000      20.00000000      40.00000000     180.00000000     120.00000000
  1 13 4  1 39 1  1     100.00000000      20.00000000      40.00000000       0.00000000     126.49110641
  1 13 22  1 39 85  1     100.00000000      20.00000000      40.00000000     180.00000000     126.49110641
  1 13 4  1 40 1  1     100.00000000      20.00000000      40.00000000       0.00000000     144.22205102
  1 13 22  1 40 85  1     100.00000000      20.00000000      40.00000000     180.00000000     144.22205102
  1 14 4  1 41 1  1     100.00000000      20.00000000      40.00000000       0.00000000     144.22205102
  1 14 22  1 41 85  1     100.00000000      20.00000000      40.00000000     180.00000000     144.22205102
  1 14 4  1 42 1  1     100.00000000      20.00000000      40.00000000       0.00000000     126.49110641
  1 14 22  1 42 85  1     100.00000000      20.00000000      40.00000000     180.00000000     126.49110641
  1 14 4  1 43 1  1     100.00000000      20.00000000      40.00000000       0.00000000     120.00000000
  1 14 22  1 43 85  1     100.00000000      20.00000000      40.00000000     180.00000000     120.00000000
  1 14 4  1 44 1  1     100.00000000      20.00000000      40.00000000       0.00000000     126.49110641
  1 14 22  1 44 85  1     100.00000000      20.00000000      40.00000000     180.00000000     126.49110641
  1 14 4  1 45 1  1     100.00000000      20.00000000      40.00000000       0.00000000     144.22205102
  1 14 22  1 45 85  1     100.00000000      20.00000000      40.00000000     180.00000000     144.22205102
  1 15 4  1 46 1  1     100.00000000      20.00000000      40.00000000       0.00000000     144.22205102
  1 15 22  1 46 85  1     100.00000000      20.00000000      40.00000000     180.00000000     144.22205102
  1 15 4  1 47 1  1     100.00000000      20.00000000      40.00000000       0.00000000     126.49110641
  1 15 22  1 47 85  1     100.00000000      20.00000000      40.00000000     180.00000000     126.49110641
  1 15 4  1 48 1  1     100.00000000      20.00000000      40.00000000       0.00000000     120.00000000
  1 15 22  1 48 85  1     100.00000000      20.00000000      40.00000000     180.00000000     120.00000000
  1 15 4  1 49 1  1     100.00000000      20.00000000      40.00000000       0.00000000     126.49110641
  1 15 22  1 49 85  1     100.00000000      20.00000000      40.00000000     180.00000000     126.49110641
  1 15 4  1 50 1  1     100.00000000      20.00000000      40.00000000       0.00000000     144.22205102
  1 15 22  1 50 85  1     100.00000000      20.00000000      40.00000000     180.00000000     144.22205102
  1 16 4  1 51 1  1     100.00000000      20.00000000      40.00000000       0.00000000     144.22205102
  1 16 22  1 51 85  1     100.00000000      20.00000000      40.00000000     180.00000000     144.22205102
  1 16 4  1 52 1  1     100.00000000      20.00000000      40.00000000       0.00000000     126.49110641
  1 16 22  1 52 85  1     100.00000000      20.00000000      40.00000000     180.00000000     126.49110641
  1 16 4  1 53 1  1     100.00000000      20.00000000      40.00000000       0.00000000     120.00000000
  1 16 22  1 53 85  1     100.00000000      20.00000000      40.00000000     180.00000000     120.00000000
  1 16 4  1 54 1  1     100.00000000      20.00000000      40.00000000       0.00000000     126.49110641
  1 16 22  1 54 85  1     100.00000000      20.00000000      40.00000000     180.00000000     126.49110641
  1 16 4  1 55 1  1     100.00000000      20.00000000      40.00000000       0.00000000     144.22205102
  1 16 22  1 55 85  1     100.00000000      20.00000000      40.00000000     180.00000000     144.22205102
  1 17 4  1 56 1  1     100.00000000      20.00000000      40.00000000       0.00000000     144.22205102
  1 17 22  1 56 85  1     100.00000000      20.00000000      40.00000000     180.00000000     144.22205102
  1 17 4  1 57 1  1     100.00000000      20.00000000      40.00000000       0.00000000     126.49110641
  1 17 22  1 57 85  1     100.00000000      20.00000000      40.00000000     180.00000000     126.49110641
  1 17 4  1 58 1  1     100.00000000      20.00000000      40.00000000       0.00000000     120.00000000
  1 17 22  1 58 85  1     100.00000000      20.00000000      40.00000000     180.00000000     120.00000000
  1 17 4  1 59 1  1     100.00000000      20.00000000      40.00000000       0.00000000     126.49110641
  1 17 22  1 59 85  1     100.00000000      20.00000000      40.00000000     180.00000000     126.49110641
  1 17 4  1 60 1  1     100.00000000      20.00000000      40.00000000       0.00000000     144.22205102
  1 17 22  1 60 85  1     100.00000000      20.00000000      40.00000000     180.00000000     144.22205102
  1 18 4  1 61 1  1     100.00000000      20.00000000      40.00000000       0.00000000     144.22205102
  1 18 22  1 61 85  1     100.00000000      20.00000000      40.00000000     180.00000000     144.22205102
  1 18 4  1 62 1  1     100.00000000      20.00000000      40.00000000       0.00000000     126.49110641
  1 18 22  1 62 85  1     100.00000000      20.00000000      40.00000000     180.00000000     126.49110641
  1 18 4  1 63 1  1     100.00000000      20.00000000      40.00000000       0.00000000     120.00000000
  1 18 22  1 63 85  1     100.00000000      20.00000000      40.00000000     180.00000000     120.00000000
  1 18 4  1 64 1  1     100.00000000      20.00000000      40.00000000       0.00000000     126.49110641
  1 18 22  1 64 85  1     100.00000000      20.00000000      40.00000000     180.00000000     126.49110641
  1 18 4  1 65 1  1     100.00000000      20.00000000      40.00000000       0.00000000     144.22205102
  1 18 22  1 65 85  1     100.00000000      20.00000000      40.00000000     180.00000000     144.22205102
  1 19 4  1 66 1  1     100.00000000      20.00000000      40.00000000       0.00000000     144.22205102
  1 19 22  1 66 85  1     100.00000000      20.00000000      40.00000000     180.00000000     144.22205102
  1 19 4  1 67 1  1     100.00000000      20.00000000      40.00000000       0.00000000     126.49110641
  1 19 22  1 67 85  1     100.00000000      20.00000000      40.00000000     180.00000000     126.49110641
  1 19 4  1 68 1  1     100.00000000      20.00000000      40.00000000       0.00000000     120.00000000
  1 19 22  1 68 85  1     100.00000000      20.00000000      40.00000000     180.00000000     120.00000000
  1 19 4  1 69 1  1     100.00000000      20.00000000      40.00000000       0.00000000     126.49110641
  1 19 22  1 69 85  1     100.00000000      20.00000000      40.00000000     180.00000000     126.49110641
  1 19 4  1 70 1  1     100.00000000      20.00000000      40.00000000       0.00000000     144.22205102
  1 19 22  1 70 85  1     100.00000000      20.00000000      40.00000000     180.00000000     144.22205102
  1 20 4  1 71 1  1     100.00000000      20.00000000      40.00000000       0.00000000     144.22205102
  1 20 22  1 71 85  1     100.00000000      20.00000000      40.00000000     180.00000000     144.22205102
  1 20 4  1 72 1  1     100.00000000      20.00000000      40.00000000       0.00000000     126.49110641
  1 20 22  1 72 85  1     100.00000000      20.00000000      40.00000000     180.00000000     126.49110641
  1 20 4  1 73 1  1     100.00000000      20.00000000      40.00000000       0.00000000     120.00000000
  1 20 22  1 73 85  1     100.00000000      20.00000000      40.00000000     180.00000000     120.00000000
  1 20 4  1 74 1  1     100.00000000      20.00000000      40.00000000       0.00000000     126.49110641
  1 20 22  1 74 85  1     100.00000000      20.00000000      40.00000000     180.00000000     126.49110641
  1 20 4  1 75 1  1     100.00000000      20.00000000      40.00000000       0.00000000     144.22205102
  1 21 5  1 75 1  1     100.00000000      20.00000000      40.00000000      90.00000000     144.22205102
  1 21 5  1 75 2  1     100.00000000      20.00000000      40.00000000      90.00000000     126.49110641
  1 21 5  1 75 3  1     100.00000000      20.00000000      40.00000000      90.00000000     120.00000000
  1 21 5  1 75 4  1     100.00000000      20.00000000      40.00000000      90.00000000     126.49110641
  1 21 5  1 75 5  1     100.00000000      20.00000000      40.00000000      90.00000000     144.22205102
  1 21 6  1 75 6  1     100.00000000      20.00000000      40.00000000      90.00000000     144.22205102
  1 21 6  1 75 7  1     100.00000000      20.00000000      40.00000000      90.00000000     126.49110641
  1 21 6  1 75 8  1     100.00000000      20.00000000      40.00000000      90.00000000     120.00000000
  1 21 6  1 75 9  1     100.00000000      20.00000000      40.00000000      90.00000000     126.49110641
  1 21 6  1 75 10  1     100.00000000      20.00000000      40.00000000      90.00000000     144.22205102
  1 21 7  1 75 11  1     100.00000000      20.00000000      40.00000000      90.00000000     144.22205102
  1 21 7  1 75 12  1     100.00000000      20.00000000      40.00000000      90.00000000     126.49110641
  1 21 7  1 75 13  1     100.00000000      20.00000000      40.00000000      90.00000000     120.00000000
  1 21 7  1 75 14  1     100.00000000      20.00000000      40.00000000      90.00000000     126.49110641
  1 21 7  1 75 15  1     100.00000000      20.00000000      40.00000000      90.00000000     144.22205102
  1 21 8  1 75 16  1     100.00000000      20.00000000      40.00000000      90.00000000     144.22205102
  1 21 8  1 75 17  1     100.00000000      20.00000000      40.00000000      90.00000000     126.49110641
  1 21 8  1 75 18  1     100.00000000      20.00000000      40.00000000      90.00000000     120.00000000
  1 21 8  1 75 19  1     100.00000000      20.00000000      40.00000000      90.00000000     126.49110641
  1 21 8  1 75 20  1     100.00000000      20.00000000      40.00000000      90.00000000     144.22205102
  1 20 22  1 75 85  1     100.00000000      20.00000000      40.00000000     180.00000000     144.22205102
  2 6 4  2 1 1  1     100.00000000      20.00000000      40.00000000       0.00000000     144.22205102
  2 5 5  2 1 1  1     100.00000000      20.00000000      40.00000000     270.00000000     144.22205102
  2 5 5  2 1 2  1     100.00000000      20.00000000      40.00000000     270.00000000     126.49110641
  2 5 5  2 1 3  1     100.00000000      20.00000000      40.00000000     270.00000000     120.00000000
  2 5 5  2 1 4  1     100.00000000      20.00000000      40.00000000     270.00000000     126.49110641
  2 5 5  2 1 5  1     100.00000000      20.00000000      40.00000000     270.00000000     144.22205102
  2 5 6  2 1 6  1     100.00000000      20.00000000      40.00000000     270.00000000     144.22205102
  2 5 6  2 1 7  1     100.00000000      20.00000000      40.00000000     270.00000000     126.49110641
  2 5 6  2 1 8  1     100.00000000      20.00000000      40.00000000     270.00000000     120.00000000
  2 5 6  2 1 9  1     100.00000000      20.00000000      40.00000000     270.00000000     126.49110641
  2 5 6  2 1 10  1     100.00000000      20.00000000      40.00000000     270.00000000     144.22205102
  2 5 7  2 1 11  1     100.00000000      20.00000000      40.00000000     270.00000000     144.22205102
  2 5 7  2 1 12  1     100.00000000      20.00000000      40.00000000     270.00000000     126.49110641
  2 5 7  2 1 13  1     100.00000000      20.00000000      40.00000000     270.00000000     120.00000000
  2 5 7  2 1 14  1     100.00000000      20.00000000      40.00000000     270.00000000     126.49110641
  2 5 7  2 1 15  1     100.00000000      20.00000000      40.00000000     270.00000000     144.22205102
  2 5 8  2 1 16  1     100.00000000      20.00000000      40.00000000     270.00000000     144.22205102
  2 5 8  2 1 17  1     100.00000000      20.00000000      40.00000000     270.00000000     126.49110641
  2 5 8  2 1 18  1     100.00000000      20.00000000      40.00000000     270.00000000     120.00000000
  2 5 8  2 1 19  1     100.00000000      20.00000000      40.00000000     270.00000000     126.49110641
  2 5 8  2 1 20  1     100.00000000      20.00000000      40.00000000     270.00000000     144.22205102
  2 5 9  2 1 21  1     100.00000000      20.00000000      40.00000000     270.00000000     144.22205102
  2 5 9  2 1 22  1     100.00000000      20.00000000      40.00000000     270.00000000     126.49110641
  2 5 9  2 1 23  1     100.00000000      20.00000000      40.00000000     270.00000000     120.00000000
  2 5 9  2 1 24  1     100.00000000      20.00000000      40.00000000     270.00000000     126.49110641
  2 5 9  2 1 25  1     100.00000000      20.00000000      40.00000000     270.00000000     144.22205102