BEGIN OPTIONS
  DIGITS 5
  PRINT_INPUT
END OPTIONS
BEGIN CONTINUOUS FILEOUT plsnt_lgr_parent.sfr.obs.output.csv
# obsname  obstype  rno
  2000000  downstream-flow  1
  1000000  downstream-flow  13
END CONTINUOUS
