# plsnt_lgr_inset model version 0.post3.dev0+ge07a693
# File generated by Flopy version 3.10.0.dev1 on 11/19/2025 at 16:36:00.
# via modflow-setup version 0.6.0 at 2025-11-19 16:36:01
BEGIN options
  BUDGET  FILEOUT  plsnt_lgr_inset.cbc
  HEAD  FILEOUT  plsnt_lgr_inset.hds
END options

BEGIN period  1
  SAVE  head  last
  SAVE  budget  last
END period  1

