# plsnt_lgr_inset model version 0.post3.dev0+ge07a693
# File generated by Flopy version 3.10.0.dev1 on 11/19/2025 at 16:36:00.
# via modflow-setup version 0.6.0 at 2025-11-19 16:36:01
BEGIN options
  BOUNDNAMES
  SAVE_FLOWS
  OBS6  FILEIN  plsnt_lgr_inset.lak.obs
  SURFDEP       0.10000000
  TIME_CONVERSION   86400.00000000
  LENGTH_CONVERSION       1.00000000
END options

BEGIN dimensions
  NLAKES  1
  NOUTLETS  0
  NTABLES  1
END dimensions

BEGIN packagedata
  1     290.85000000  345  lake1
END packagedata

BEGIN connectiondata
  1  1  1 37 54  vertical  0.025       0.00000000       0.00000000       0.00000000       0.00000000
  1  2  1 41 42  vertical  0.025       0.00000000       0.00000000       0.00000000       0.00000000
  1  3  1 30 51  vertical  0.025       0.00000000       0.00000000       0.00000000       0.00000000
  1  4  1 41 51  vertical  0.025       0.00000000       0.00000000       0.00000000       0.00000000
  1  5  1 42 34  vertical  0.025       0.00000000       0.00000000       0.00000000       0.00000000
  1  6  1 45 30  vertical  0.045       0.00000000       0.00000000       0.00000000       0.00000000
  1  7  1 42 43  vertical  0.025       0.00000000       0.00000000       0.00000000       0.00000000
  1  8  3 34 39  vertical  0.025       0.00000000       0.00000000       0.00000000       0.00000000
  1  9  1 42 52  vertical  0.025       0.00000000       0.00000000       0.00000000       0.00000000
  1  10  1 34 48  vertical  0.025       0.00000000       0.00000000       0.00000000       0.00000000
  1  11  2 45 48  vertical  0.045       0.00000000       0.00000000       0.00000000       0.00000000
  1  12  1 46 31  vertical  0.045       0.00000000       0.00000000       0.00000000       0.00000000
  1  13  1 38 36  vertical  0.025       0.00000000       0.00000000       0.00000000       0.00000000
  1  14  1 37 49  vertical  0.025       0.00000000       0.00000000       0.00000000       0.00000000
  1  15  1 41 37  vertical  0.025       0.00000000       0.00000000       0.00000000       0.00000000
  1  16  1 41 46  vertical  0.025       0.00000000       0.00000000       0.00000000       0.00000000
  1  17  1 41 55  vertical  0.045       0.00000000       0.00000000       0.00000000       0.00000000
  1  18  1 42 38  vertical  0.045       0.00000000       0.00000000       0.00000000       0.00000000
  1  19  2 34 34  vertical  0.025       0.00000000       0.00000000       0.00000000       0.00000000
  1  20  1 45 34  vertical  0.025       0.00000000       0.00000000       0.00000000       0.00000000
  1  21  1 34 43  vertical  0.025       0.00000000       0.00000000       0.00000000       0.00000000
  1  22  1 45 52  vertical  0.025       0.00000000       0.00000000       0.00000000       0.00000000
  1  23  1 37 35  vertical  0.025       0.00000000       0.00000000       0.00000000       0.00000000
  1  24  1 37 44  vertical  0.025       0.00000000       0.00000000       0.00000000       0.00000000
  1  25  1 37 53  vertical  0.025       0.00000000       0.00000000       0.00000000       0.00000000
  1  26  1 29 49  vertical  0.045       0.00000000       0.00000000       0.00000000       0.00000000
  1  27  1 41 32  vertical  0.045       0.00000000       0.00000000       0.00000000       0.00000000
  1  28  1 41 41  vertical  0.025       0.00000000       0.00000000       0.00000000       0.00000000
  1  29  1 30 50  vertical  0.025       0.00000000       0.00000000       0.00000000       0.00000000
  1  30  1 41 50  vertical  0.025       0.00000000       0.00000000       0.00000000       0.00000000
  1  31  1 42 33  vertical  0.025       0.00000000       0.00000000       0.00000000       0.00000000
  1  32  3 34 38  vertical  0.025       0.00000000       0.00000000       0.00000000       0.00000000
  1  33  1 33 42  vertical  0.025       0.00000000       0.00000000       0.00000000       0.00000000
  1  34  1 44 42  vertical  0.045       0.00000000       0.00000000       0.00000000       0.00000000
  1  35  1 33 51  vertical  0.025       0.00000000       0.00000000       0.00000000       0.00000000
  1  36  1 44 51  vertical  0.025       0.00000000       0.00000000       0.00000000       0.00000000
  1  37  1 36 47  vertical  0.025       0.00000000       0.00000000       0.00000000       0.00000000
  1  38  1 37 39  vertical  0.025       0.00000000       0.00000000       0.00000000       0.00000000
  1  39  1 37 48  vertical  0.025       0.00000000       0.00000000       0.00000000       0.00000000
  1  40  1 41 36  vertical  0.025       0.00000000       0.00000000       0.00000000       0.00000000
  1  41  1 41 45  vertical  0.025       0.00000000       0.00000000       0.00000000       0.00000000
  1  42  1 40 49  vertical  0.025       0.00000000       0.00000000       0.00000000       0.00000000
  1  43  1 32 54  vertical  0.045       0.00000000       0.00000000       0.00000000       0.00000000
  1  44  2 33 37  vertical  0.045       0.00000000       0.00000000       0.00000000       0.00000000
  1  45  1 44 37  vertical  0.025       0.00000000       0.00000000       0.00000000       0.00000000
  1  46  1 33 46  vertical  0.025       0.00000000       0.00000000       0.00000000       0.00000000
  1  47  1 44 46  vertical  0.045       0.00000000       0.00000000       0.00000000       0.00000000
  1  48  2 36 42  vertical  0.025       0.00000000       0.00000000       0.00000000       0.00000000
  1  49  1 36 51  vertical  0.025       0.00000000       0.00000000       0.00000000       0.00000000
  1  50  1 37 34  vertical  0.045       0.00000000       0.00000000       0.00000000       0.00000000
  1  51  1 37 43  vertical  0.025       0.00000000       0.00000000       0.00000000       0.00000000
  1  52  1 37 52  vertical  0.025       0.00000000       0.00000000       0.00000000       0.00000000
  1  53  1 29 48  vertical  0.045       0.00000000       0.00000000       0.00000000       0.00000000
  1  54  1 40 44  vertical  0.025       0.00000000       0.00000000       0.00000000       0.00000000
  1  55  1 40 53  vertical  0.025       0.00000000       0.00000000       0.00000000       0.00000000
  1  56  1 32 49  vertical  0.045       0.00000000       0.00000000       0.00000000       0.00000000
  1  57  1 44 32  vertical  0.045       0.00000000       0.00000000       0.00000000       0.00000000
  1  58  1 33 41  vertical  0.025       0.00000000       0.00000000       0.00000000       0.00000000
  1  59  2 36 37  vertical  0.025       0.00000000       0.00000000       0.00000000       0.00000000
  1  60  1 33 50  vertical  0.025       0.00000000       0.00000000       0.00000000       0.00000000
  1  61  2 44 50  vertical  0.025       0.00000000       0.00000000       0.00000000       0.00000000
  1  62  1 36 46  vertical  0.025       0.00000000       0.00000000       0.00000000       0.00000000
  1  63  1 36 55  vertical  0.045       0.00000000       0.00000000       0.00000000       0.00000000
  1  64  1 37 38  vertical  0.025       0.00000000       0.00000000       0.00000000       0.00000000
  1  65  1 43 45  vertical  0.025       0.00000000       0.00000000       0.00000000       0.00000000
  1  66  1 43 54  vertical  0.045       0.00000000       0.00000000       0.00000000       0.00000000
  1  67  1 40 39  vertical  0.025       0.00000000       0.00000000       0.00000000       0.00000000
  1  68  2 32 35  vertical  0.045       0.00000000       0.00000000       0.00000000       0.00000000
  1  69  1 40 48  vertical  0.025       0.00000000       0.00000000       0.00000000       0.00000000
  1  70  1 32 44  vertical  0.025       0.00000000       0.00000000       0.00000000       0.00000000
  1  71  1 32 53  vertical  0.025       0.00000000       0.00000000       0.00000000       0.00000000
  1  72  2 33 36  vertical  0.025       0.00000000       0.00000000       0.00000000       0.00000000
  1  73  1 44 36  vertical  0.025       0.00000000       0.00000000       0.00000000       0.00000000
  1  74  1 33 45  vertical  0.025       0.00000000       0.00000000       0.00000000       0.00000000
  1  75  1 44 45  vertical  0.045       0.00000000       0.00000000       0.00000000       0.00000000
  1  76  2 36 41  vertical  0.025       0.00000000       0.00000000       0.00000000       0.00000000
  1  77  1 36 50  vertical  0.025       0.00000000       0.00000000       0.00000000       0.00000000
  1  78  1 39 52  vertical  0.025       0.00000000       0.00000000       0.00000000       0.00000000
  1  79  1 43 40  vertical  0.045       0.00000000       0.00000000       0.00000000       0.00000000
  1  80  1 43 49  vertical  0.025       0.00000000       0.00000000       0.00000000       0.00000000
  1  81  1 40 34  vertical  0.025       0.00000000       0.00000000       0.00000000       0.00000000
  1  82  1 40 43  vertical  0.025       0.00000000       0.00000000       0.00000000       0.00000000
  1  83  1 32 39  vertical  0.045       0.00000000       0.00000000       0.00000000       0.00000000
  1  84  1 40 52  vertical  0.025       0.00000000       0.00000000       0.00000000       0.00000000
  1  85  1 32 48  vertical  0.045       0.00000000       0.00000000       0.00000000       0.00000000
  1  86  1 33 40  vertical  0.025       0.00000000       0.00000000       0.00000000       0.00000000
  1  87  2 36 36  vertical  0.025       0.00000000       0.00000000       0.00000000       0.00000000
  1  88  1 36 45  vertical  0.025       0.00000000       0.00000000       0.00000000       0.00000000
  1  89  1 47 51  vertical  0.045       0.00000000       0.00000000       0.00000000       0.00000000
  1  90  1 39 47  vertical  0.025       0.00000000       0.00000000       0.00000000       0.00000000
  1  91  1 43 35  vertical  0.025       0.00000000       0.00000000       0.00000000       0.00000000
  1  92  1 31 42  vertical  0.045       0.00000000       0.00000000       0.00000000       0.00000000
  1  93  1 43 44  vertical  0.025       0.00000000       0.00000000       0.00000000       0.00000000
  1  94  1 31 51  vertical  0.025       0.00000000       0.00000000       0.00000000       0.00000000
  1  95  1 43 53  vertical  0.025       0.00000000       0.00000000       0.00000000       0.00000000
  1  96  1 40 38  vertical  0.025       0.00000000       0.00000000       0.00000000       0.00000000
  1  97  2 32 34  vertical  0.045       0.00000000       0.00000000       0.00000000       0.00000000
  1  98  1 40 47  vertical  0.025       0.00000000       0.00000000       0.00000000       0.00000000
  1  99  1 32 43  vertical  0.025       0.00000000       0.00000000       0.00000000       0.00000000
  1  100  1 32 52  vertical  0.025       0.00000000       0.00000000       0.00000000       0.00000000
  1  101  1 44 35  vertical  0.025       0.00000000       0.00000000       0.00000000       0.00000000
  1  102  1 35 54  vertical  0.025       0.00000000       0.00000000       0.00000000       0.00000000
  1  103  1 39 33  vertical  0.045       0.00000000       0.00000000       0.00000000       0.00000000
  1  104  1 39 42  vertical  0.025       0.00000000       0.00000000       0.00000000       0.00000000
  1  105  1 39 51  vertical  0.025       0.00000000       0.00000000       0.00000000       0.00000000
  1  106  1 43 48  vertical  0.025       0.00000000       0.00000000       0.00000000       0.00000000
  1  107  1 40 33  vertical  0.045       0.00000000       0.00000000       0.00000000       0.00000000
  1  108  1 40 42  vertical  0.025       0.00000000       0.00000000       0.00000000       0.00000000
  1  109  1 32 38  vertical  0.045       0.00000000       0.00000000       0.00000000       0.00000000
  1  110  3 35 40  vertical  0.025       0.00000000       0.00000000       0.00000000       0.00000000
  1  111  1 35 49  vertical  0.025       0.00000000       0.00000000       0.00000000       0.00000000
  1  112  2 46 49  vertical  0.025       0.00000000       0.00000000       0.00000000       0.00000000
  1  113  1 38 45  vertical  0.025       0.00000000       0.00000000       0.00000000       0.00000000
  1  114  1 38 54  vertical  0.025       0.00000000       0.00000000       0.00000000       0.00000000
  1  115  1 39 37  vertical  0.025       0.00000000       0.00000000       0.00000000       0.00000000
  1  116  1 47 50  vertical  0.045       0.00000000       0.00000000       0.00000000       0.00000000
  1  117  1 39 46  vertical  0.025       0.00000000       0.00000000       0.00000000       0.00000000
  1  118  1 39 55  vertical  0.045       0.00000000       0.00000000       0.00000000       0.00000000
  1  119  1 43 34  vertical  0.025       0.00000000       0.00000000       0.00000000       0.00000000
  1  120  2 31 41  vertical  0.045       0.00000000       0.00000000       0.00000000       0.00000000
  1  121  1 43 43  vertical  0.025       0.00000000       0.00000000       0.00000000       0.00000000
  1  122  1 31 50  vertical  0.025       0.00000000       0.00000000       0.00000000       0.00000000
  1  123  1 42 47  vertical  0.025       0.00000000       0.00000000       0.00000000       0.00000000
  1  124  1 34 52  vertical  0.025       0.00000000       0.00000000       0.00000000       0.00000000
  1  125  3 35 35  vertical  0.025       0.00000000       0.00000000       0.00000000       0.00000000
  1  126  1 46 35  vertical  0.025       0.00000000       0.00000000       0.00000000       0.00000000
  1  127  1 35 44  vertical  0.025       0.00000000       0.00000000       0.00000000       0.00000000
  1  128  1 38 40  vertical  0.025       0.00000000       0.00000000       0.00000000       0.00000000
  1  129  1 35 53  vertical  0.025       0.00000000       0.00000000       0.00000000       0.00000000
  1  130  1 38 49  vertical  0.025       0.00000000       0.00000000       0.00000000       0.00000000
  1  131  1 47 36  vertical  0.045       0.00000000       0.00000000       0.00000000       0.00000000
  1  132  1 39 41  vertical  0.025       0.00000000       0.00000000       0.00000000       0.00000000
  1  133  1 39 50  vertical  0.025       0.00000000       0.00000000       0.00000000       0.00000000
  1  134  1 42 42  vertical  0.025       0.00000000       0.00000000       0.00000000       0.00000000
  1  135  1 42 51  vertical  0.025       0.00000000       0.00000000       0.00000000       0.00000000
  1  136  1 34 47  vertical  0.025       0.00000000       0.00000000       0.00000000       0.00000000
  1  137  3 35 39  vertical  0.025       0.00000000       0.00000000       0.00000000       0.00000000
  1  138  1 38 35  vertical  0.025       0.00000000       0.00000000       0.00000000       0.00000000
  1  139  1 35 48  vertical  0.025       0.00000000       0.00000000       0.00000000       0.00000000
  1  140  1 46 48  vertical  0.045       0.00000000       0.00000000       0.00000000       0.00000000
  1  141  1 38 44  vertical  0.025       0.00000000       0.00000000       0.00000000       0.00000000
  1  142  1 38 53  vertical  0.025       0.00000000       0.00000000       0.00000000       0.00000000
  1  143  1 39 36  vertical  0.025       0.00000000       0.00000000       0.00000000       0.00000000
  1  144  1 41 54  vertical  0.025       0.00000000       0.00000000       0.00000000       0.00000000
  1  145  1 42 37  vertical  0.025       0.00000000       0.00000000       0.00000000       0.00000000
  1  146  1 34 33  vertical  0.045       0.00000000       0.00000000       0.00000000       0.00000000
  1  147  1 45 33  vertical  0.025       0.00000000       0.00000000       0.00000000       0.00000000
  1  148  1 42 46  vertical  0.025       0.00000000       0.00000000       0.00000000       0.00000000
  1  149  2 34 42  vertical  0.025       0.00000000       0.00000000       0.00000000       0.00000000
  1  150  1 34 51  vertical  0.025       0.00000000       0.00000000       0.00000000       0.00000000
  1  151  1 45 51  vertical  0.025       0.00000000       0.00000000       0.00000000       0.00000000
  1  152  1 35 34  vertical  0.025       0.00000000       0.00000000       0.00000000       0.00000000
  1  153  1 46 34  vertical  0.025       0.00000000       0.00000000       0.00000000       0.00000000
  1  154  1 35 43  vertical  0.025       0.00000000       0.00000000       0.00000000       0.00000000
  1  155  1 38 39  vertical  0.025       0.00000000       0.00000000       0.00000000       0.00000000
  1  156  1 35 52  vertical  0.025       0.00000000       0.00000000       0.00000000       0.00000000
  1  157  1 46 52  vertical  0.045       0.00000000       0.00000000       0.00000000       0.00000000
  1  158  1 38 48  vertical  0.025       0.00000000       0.00000000       0.00000000       0.00000000
  1  159  1 41 40  vertical  0.025       0.00000000       0.00000000       0.00000000       0.00000000
  1  160  1 30 49  vertical  0.025       0.00000000       0.00000000       0.00000000       0.00000000
  1  161  1 41 49  vertical  0.025       0.00000000       0.00000000       0.00000000       0.00000000
  1  162  1 42 32  vertical  0.025       0.00000000       0.00000000       0.00000000       0.00000000
  1  163  1 42 41  vertical  0.025       0.00000000       0.00000000       0.00000000       0.00000000
  1  164  3 34 37  vertical  0.025       0.00000000       0.00000000       0.00000000       0.00000000
  1  165  1 45 37  vertical  0.045       0.00000000       0.00000000       0.00000000       0.00000000
  1  166  1 42 50  vertical  0.025       0.00000000       0.00000000       0.00000000       0.00000000
  1  167  1 34 46  vertical  0.025       0.00000000       0.00000000       0.00000000       0.00000000
  1  168  1 34 55  vertical  0.045       0.00000000       0.00000000       0.00000000       0.00000000
  1  169  3 35 38  vertical  0.025       0.00000000       0.00000000       0.00000000       0.00000000
  1  170  1 38 34  vertical  0.025       0.00000000       0.00000000       0.00000000       0.00000000
  1  171  1 38 43  vertical  0.025       0.00000000       0.00000000       0.00000000       0.00000000
  1  172  1 37 47  vertical  0.025       0.00000000       0.00000000       0.00000000       0.00000000
  1  173  1 29 52  vertical  0.045       0.00000000       0.00000000       0.00000000       0.00000000
  1  174  1 41 35  vertical  0.025       0.00000000       0.00000000       0.00000000       0.00000000
  1  175  1 41 44  vertical  0.025       0.00000000       0.00000000       0.00000000       0.00000000
  1  176  1 30 53  vertical  0.045       0.00000000       0.00000000       0.00000000       0.00000000
  1  177  1 41 53  vertical  0.025       0.00000000       0.00000000       0.00000000       0.00000000
  1  178  1 42 36  vertical  0.025       0.00000000       0.00000000       0.00000000       0.00000000
  1  179  1 45 32  vertical  0.025       0.00000000       0.00000000       0.00000000       0.00000000
  1  180  1 42 45  vertical  0.025       0.00000000       0.00000000       0.00000000       0.00000000
  1  181  2 34 41  vertical  0.025       0.00000000       0.00000000       0.00000000       0.00000000
  1  182  1 34 50  vertical  0.025       0.00000000       0.00000000       0.00000000       0.00000000
  1  183  2 45 50  vertical  0.025       0.00000000       0.00000000       0.00000000       0.00000000
  1  184  1 33 54  vertical  0.045       0.00000000       0.00000000       0.00000000       0.00000000
  1  185  1 46 33  vertical  0.025       0.00000000       0.00000000       0.00000000       0.00000000
  1  186  1 37 42  vertical  0.025       0.00000000       0.00000000       0.00000000       0.00000000
  1  187  1 37 51  vertical  0.025       0.00000000       0.00000000       0.00000000       0.00000000
  1  188  1 41 39  vertical  0.025       0.00000000       0.00000000       0.00000000       0.00000000
  1  189  1 30 48  vertical  0.045       0.00000000       0.00000000       0.00000000       0.00000000
  1  190  1 41 48  vertical  0.025       0.00000000       0.00000000       0.00000000       0.00000000
  1  191  1 42 31  vertical  0.045       0.00000000       0.00000000       0.00000000       0.00000000
  1  192  1 42 40  vertical  0.045       0.00000000       0.00000000       0.00000000       0.00000000
  1  193  3 34 36  vertical  0.025       0.00000000       0.00000000       0.00000000       0.00000000
  1  194  1 45 36  vertical  0.025       0.00000000       0.00000000       0.00000000       0.00000000
  1  195  1 34 45  vertical  0.025       0.00000000       0.00000000       0.00000000       0.00000000
  1  196  1 33 49  vertical  0.045       0.00000000       0.00000000       0.00000000       0.00000000
  1  197  2 44 49  vertical  0.025       0.00000000       0.00000000       0.00000000       0.00000000
  1  198  1 36 54  vertical  0.025       0.00000000       0.00000000       0.00000000       0.00000000
  1  199  1 37 37  vertical  0.025       0.00000000       0.00000000       0.00000000       0.00000000
  1  200  1 37 46  vertical  0.025       0.00000000       0.00000000       0.00000000       0.00000000
  1  201  1 37 55  vertical  0.045       0.00000000       0.00000000       0.00000000       0.00000000
  1  202  1 29 51  vertical  0.045       0.00000000       0.00000000       0.00000000       0.00000000
  1  203  1 41 34  vertical  0.025       0.00000000       0.00000000       0.00000000       0.00000000
  1  204  1 41 43  vertical  0.025       0.00000000       0.00000000       0.00000000       0.00000000
  1  205  1 30 52  vertical  0.045       0.00000000       0.00000000       0.00000000       0.00000000
  1  206  1 41 52  vertical  0.025       0.00000000       0.00000000       0.00000000       0.00000000
  1  207  1 45 31  vertical  0.045       0.00000000       0.00000000       0.00000000       0.00000000
  1  208  2 33 35  vertical  0.025       0.00000000       0.00000000       0.00000000       0.00000000
  1  209  1 33 44  vertical  0.025       0.00000000       0.00000000       0.00000000       0.00000000
  1  210  1 44 44  vertical  0.045       0.00000000       0.00000000       0.00000000       0.00000000
  1  211  2 36 40  vertical  0.025       0.00000000       0.00000000       0.00000000       0.00000000
  1  212  1 33 53  vertical  0.025       0.00000000       0.00000000       0.00000000       0.00000000
  1  213  1 44 53  vertical  0.045       0.00000000       0.00000000       0.00000000       0.00000000
  1  214  1 36 49  vertical  0.025       0.00000000       0.00000000       0.00000000       0.00000000
  1  215  1 37 41  vertical  0.025       0.00000000       0.00000000       0.00000000       0.00000000
  1  216  1 37 50  vertical  0.025       0.00000000       0.00000000       0.00000000       0.00000000
  1  217  1 41 38  vertical  0.025       0.00000000       0.00000000       0.00000000       0.00000000
  1  218  1 40 51  vertical  0.025       0.00000000       0.00000000       0.00000000       0.00000000
  1  219  1 44 30  vertical  0.045       0.00000000       0.00000000       0.00000000       0.00000000
  1  220  2 33 39  vertical  0.025       0.00000000       0.00000000       0.00000000       0.00000000
  1  221  1 36 35  vertical  0.025       0.00000000       0.00000000       0.00000000       0.00000000
  1  222  1 33 48  vertical  0.045       0.00000000       0.00000000       0.00000000       0.00000000
  1  223  2 44 48  vertical  0.025       0.00000000       0.00000000       0.00000000       0.00000000
  1  224  1 36 44  vertical  0.025       0.00000000       0.00000000       0.00000000       0.00000000
  1  225  1 36 53  vertical  0.025       0.00000000       0.00000000       0.00000000       0.00000000
  1  226  1 37 36  vertical  0.025       0.00000000       0.00000000       0.00000000       0.00000000
  1  227  1 37 45  vertical  0.025       0.00000000       0.00000000       0.00000000       0.00000000
  1  228  1 29 50  vertical  0.045       0.00000000       0.00000000       0.00000000       0.00000000
  1  229  1 41 33  vertical  0.025       0.00000000       0.00000000       0.00000000       0.00000000
  1  230  1 43 52  vertical  0.025       0.00000000       0.00000000       0.00000000       0.00000000
  1  231  1 40 37  vertical  0.025       0.00000000       0.00000000       0.00000000       0.00000000
  1  232  1 40 46  vertical  0.025       0.00000000       0.00000000       0.00000000       0.00000000
  1  233  1 32 42  vertical  0.025       0.00000000       0.00000000       0.00000000       0.00000000
  1  234  1 40 55  vertical  0.045       0.00000000       0.00000000       0.00000000       0.00000000
  1  235  1 32 51  vertical  0.025       0.00000000       0.00000000       0.00000000       0.00000000
  1  236  2 33 34  vertical  0.025       0.00000000       0.00000000       0.00000000       0.00000000
  1  237  1 44 34  vertical  0.025       0.00000000       0.00000000       0.00000000       0.00000000
  1  238  1 33 43  vertical  0.025       0.00000000       0.00000000       0.00000000       0.00000000
  1  239  1 44 43  vertical  0.045       0.00000000       0.00000000       0.00000000       0.00000000
  1  240  2 36 39  vertical  0.025       0.00000000       0.00000000       0.00000000       0.00000000
  1  241  1 33 52  vertical  0.025       0.00000000       0.00000000       0.00000000       0.00000000
  1  242  1 44 52  vertical  0.025       0.00000000       0.00000000       0.00000000       0.00000000
  1  243  1 36 48  vertical  0.025       0.00000000       0.00000000       0.00000000       0.00000000
  1  244  1 37 40  vertical  0.025       0.00000000       0.00000000       0.00000000       0.00000000
  1  245  1 43 38  vertical  0.045       0.00000000       0.00000000       0.00000000       0.00000000
  1  246  1 43 47  vertical  0.025       0.00000000       0.00000000       0.00000000       0.00000000
  1  247  1 40 41  vertical  0.025       0.00000000       0.00000000       0.00000000       0.00000000
  1  248  1 40 50  vertical  0.025       0.00000000       0.00000000       0.00000000       0.00000000
  1  249  1 32 46  vertical  0.045       0.00000000       0.00000000       0.00000000       0.00000000
  1  250  2 33 38  vertical  0.045       0.00000000       0.00000000       0.00000000       0.00000000
  1  251  1 36 34  vertical  0.045       0.00000000       0.00000000       0.00000000       0.00000000
  1  252  1 33 47  vertical  0.045       0.00000000       0.00000000       0.00000000       0.00000000
  1  253  1 44 47  vertical  0.045       0.00000000       0.00000000       0.00000000       0.00000000
  1  254  1 36 43  vertical  0.025       0.00000000       0.00000000       0.00000000       0.00000000
  1  255  1 36 52  vertical  0.025       0.00000000       0.00000000       0.00000000       0.00000000
  1  256  1 47 49  vertical  0.045       0.00000000       0.00000000       0.00000000       0.00000000
  1  257  1 39 45  vertical  0.025       0.00000000       0.00000000       0.00000000       0.00000000
  1  258  1 39 54  vertical  0.025       0.00000000       0.00000000       0.00000000       0.00000000
  1  259  1 43 33  vertical  0.025       0.00000000       0.00000000       0.00000000       0.00000000
  1  260  2 31 40  vertical  0.045       0.00000000       0.00000000       0.00000000       0.00000000
  1  261  1 43 42  vertical  0.025       0.00000000       0.00000000       0.00000000       0.00000000
  1  262  1 31 49  vertical  0.025       0.00000000       0.00000000       0.00000000       0.00000000
  1  263  1 43 51  vertical  0.025       0.00000000       0.00000000       0.00000000       0.00000000
  1  264  1 40 36  vertical  0.025       0.00000000       0.00000000       0.00000000       0.00000000
  1  265  1 40 45  vertical  0.025       0.00000000       0.00000000       0.00000000       0.00000000
  1  266  1 32 41  vertical  0.025       0.00000000       0.00000000       0.00000000       0.00000000
  1  267  1 40 54  vertical  0.025       0.00000000       0.00000000       0.00000000       0.00000000
  1  268  1 32 50  vertical  0.025       0.00000000       0.00000000       0.00000000       0.00000000
  1  269  1 33 33  vertical  0.045       0.00000000       0.00000000       0.00000000       0.00000000
  1  270  1 44 33  vertical  0.025       0.00000000       0.00000000       0.00000000       0.00000000
  1  271  2 36 38  vertical  0.025       0.00000000       0.00000000       0.00000000       0.00000000
  1  272  1 47 35  vertical  0.045       0.00000000       0.00000000       0.00000000       0.00000000
  1  273  1 39 40  vertical  0.025       0.00000000       0.00000000       0.00000000       0.00000000
  1  274  1 39 49  vertical  0.025       0.00000000       0.00000000       0.00000000       0.00000000
  1  275  1 43 37  vertical  0.025       0.00000000       0.00000000       0.00000000       0.00000000
  1  276  1 31 44  vertical  0.045       0.00000000       0.00000000       0.00000000       0.00000000
  1  277  1 43 46  vertical  0.025       0.00000000       0.00000000       0.00000000       0.00000000
  1  278  1 31 53  vertical  0.045       0.00000000       0.00000000       0.00000000       0.00000000
  1  279  1 40 40  vertical  0.025       0.00000000       0.00000000       0.00000000       0.00000000
  1  280  1 32 36  vertical  0.045       0.00000000       0.00000000       0.00000000       0.00000000
  1  281  1 32 45  vertical  0.045       0.00000000       0.00000000       0.00000000       0.00000000
  1  282  1 35 47  vertical  0.025       0.00000000       0.00000000       0.00000000       0.00000000
  1  283  1 38 52  vertical  0.025       0.00000000       0.00000000       0.00000000       0.00000000
  1  284  1 39 35  vertical  0.025       0.00000000       0.00000000       0.00000000       0.00000000
  1  285  1 39 44  vertical  0.025       0.00000000       0.00000000       0.00000000       0.00000000
  1  286  1 39 53  vertical  0.025       0.00000000       0.00000000       0.00000000       0.00000000
  1  287  1 43 32  vertical  0.045       0.00000000       0.00000000       0.00000000       0.00000000