# Pleasant Lake test case version 0.1.post3.dev0+ge07a693
# File generated by Flopy version 3.10.0.dev1 on 11/19/2025 at 16:36:00.
# via modflow-setup version 0.6.0 at 2025-11-19 16:36:00
BEGIN options
  SAVE_FLOWS
END options

BEGIN griddata
  iconvert
    CONSTANT  1
  ss  LAYERED
    OPEN/CLOSE  '.\external\plsnt_lgr_parent_ss_000.dat'  FACTOR  1.0
    OPEN/CLOSE  '.\external\plsnt_lgr_parent_ss_001.dat'  FACTOR  1.0
    OPEN/CLOSE  '.\external\plsnt_lgr_parent_ss_002.dat'  FACTOR  1.0
    OPEN/CLOSE  '.\external\plsnt_lgr_parent_ss_003.dat'  FACTOR  1.0
    OPEN/CLOSE  '.\external\plsnt_lgr_parent_ss_004.dat'  FACTOR  1.0
  sy  LAYERED
    OPEN/CLOSE  '.\external\plsnt_lgr_parent_sy_000.dat'  FACTOR  1.0
    OPEN/CLOSE  '.\external\plsnt_lgr_parent_sy_001.dat'  FACTOR  1.0
    OPEN/CLOSE  '.\external\plsnt_lgr_parent_sy_002.dat'  FACTOR  1.0
    OPEN/CLOSE  '.\external\plsnt_lgr_parent_sy_003.dat'  FACTOR  1.0
    OPEN/CLOSE  '.\external\plsnt_lgr_parent_sy_004.dat'  FACTOR  1.0
END griddata

BEGIN period  1
  STEADY-STATE
END period  1

BEGIN period  2
  TRANSIENT
END period  2

BEGIN period  3
  TRANSIENT
END period  3

BEGIN period  4
  TRANSIENT
END period  4

BEGIN period  5
  TRANSIENT
END period  5

BEGIN period  6
  TRANSIENT
END period  6

BEGIN period  7
  TRANSIENT
END period  7

BEGIN period  8
  TRANSIENT
END period  8

BEGIN period  9
  TRANSIENT
END period  9

BEGIN period  10
  TRANSIENT
END period  10

BEGIN period  11
  TRANSIENT
END period  11

BEGIN period  12
  TRANSIENT
END period  12

BEGIN period  13
  TRANSIENT
END period  13

