# plsnt_lgr_inset model version 0.post3.dev0+ge07a693
# File generated by Flopy version 3.10.0.dev1 on 11/19/2025 at 16:36:00.
# via modflow-setup version 0.6.0 at 2025-11-19 16:36:01
BEGIN options
  LENGTH_UNITS  meters
  XORIGIN  5.54200000E+05
  YORIGIN  3.88800000E+05
  ANGROT       0.00000000
END options

BEGIN dimensions
  NLAY  5
  NROW  75
  NCOL  85
END dimensions

BEGIN griddata
  delr
    INTERNAL  FACTOR  1.0
        40.00000000      40.00000000      40.00000000      40.00000000      40.00000000      40.00000000      40.00000000      40.00000000      40.00000000      40.00000000      40.00000000      40.00000000      40.00000000      40.00000000      40.00000000      40.00000000      40.00000000      40.00000000      40.00000000      40.00000000      40.00000000      40.00000000      40.00000000      40.00000000      40.00000000      40.00000000      40.00000000      40.00000000      40.00000000      40.00000000      40.00000000      40.00000000      40.00000000      40.00000000      40.00000000      40.00000000      40.00000000      40.00000000      40.00000000      40.00000000      40.00000000      40.00000000      40.00000000      40.00000000      40.00000000      40.00000000      40.00000000      40.00000000      40.00000000      40.00000000      40.00000000      40.00000000      40.00000000      40.00000000      40.00000000      40.00000000      40.00000000      40.00000000      40.00000000      40.00000000      40.00000000      40.00000000      40.00000000      40.00000000      40.00000000      40.00000000      40.00000000      40.00000000      40.00000000      40.00000000      40.00000000      40.00000000      40.00000000      40.00000000      40.00000000      40.00000000      40.00000000      40.00000000      40.00000000      40.00000000      40.00000000      40.00000000      40.00000000      40.00000000      40.00000000
  delc
    INTERNAL  FACTOR  1.0
        40.00000000      40.00000000      40.00000000      40.00000000      40.00000000      40.00000000      40.00000000      40.00000000      40.00000000      40.00000000      40.00000000      40.00000000      40.00000000      40.00000000      40.00000000      40.00000000      40.00000000      40.00000000      40.00000000      40.00000000      40.00000000      40.00000000      40.00000000      40.00000000      40.00000000      40.00000000      40.00000000      40.00000000      40.00000000      40.00000000      40.00000000      40.00000000      40.00000000      40.00000000      40.00000000      40.00000000      40.00000000      40.00000000      40.00000000      40.00000000      40.00000000      40.00000000      40.00000000      40.00000000      40.00000000      40.00000000      40.00000000      40.00000000      40.00000000      40.00000000      40.00000000      40.00000000      40.00000000      40.00000000      40.00000000      40.00000000      40.00000000      40.00000000      40.00000000      40.00000000      40.00000000      40.00000000      40.00000000      40.00000000      40.00000000      40.00000000      40.00000000      40.00000000      40.00000000      40.00000000      40.00000000      40.00000000      40.00000000      40.00000000      40.00000000
  top
    OPEN/CLOSE  '.\external\plsnt_lgr_inset_top.dat'  FACTOR  1.0
  botm  LAYERED
    OPEN/CLOSE  '.\external\plsnt_lgr_inset_botm_000.dat'  FACTOR  1.0
    OPEN/CLOSE  '.\external\plsnt_lgr_inset_botm_001.dat'  FACTOR  1.0
    OPEN/CLOSE  '.\external\plsnt_lgr_inset_botm_002.dat'  FACTOR  1.0
    OPEN/CLOSE  '.\external\plsnt_lgr_inset_botm_003.dat'  FACTOR  1.0
    OPEN/CLOSE  '.\external\plsnt_lgr_inset_botm_004.dat'  FACTOR  1.0
  idomain  LAYERED
    OPEN/CLOSE  '.\external\plsnt_lgr_inset_idomain_000.dat'  FACTOR  1
    OPEN/CLOSE  '.\external\plsnt_lgr_inset_idomain_001.dat'  FACTOR  1
    OPEN/CLOSE  '.\external\plsnt_lgr_inset_idomain_002.dat'  FACTOR  1
    OPEN/CLOSE  '.\external\plsnt_lgr_inset_idomain_003.dat'  FACTOR  1
    OPEN/CLOSE  '.\external\plsnt_lgr_inset_idomain_004.dat'  FACTOR  1
END griddata

