# sm_tmr model version 0.post67.dev0+g98604a4
# File generated by Flopy version 3.10.0.dev1 on 11/19/2025 at 17:46:50.
# via modflow-setup version 0.6.0 at 2025-11-19 17:46:51
BEGIN options
END options

BEGIN timing
  TDIS6  sm_tmr.tdis
END timing

BEGIN models
  gwf6  sm_tmr.nam  sm_tmr
END models

BEGIN exchanges
END exchanges

BEGIN solutiongroup  1
  ims6  sm_tmr.ims  sm_tmr
END solutiongroup  1

