# sm_tmr model version 0.post67.dev0+g98604a4
# File generated by Flopy version 3.10.0.dev1 on 11/19/2025 at 17:46:50.
# via modflow-setup version 0.6.0 at 2025-11-19 17:46:51
BEGIN options
  BOUNDNAMES
  PRINT_INPUT
  PRINT_FLOWS
  SAVE_FLOWS
  OBS6  FILEIN  sm_tmr.riv.obs
END options

BEGIN dimensions
  MAXBOUND  47
END dimensions

BEGIN period  1
    OPEN/CLOSE  '.\external\riv_000.dat'
END period  1

