# sm_tmr model version 0.post67.dev0+g98604a4
# File created by modflow-setup version 0.6.0 at 2025-11-19 17:46:51
# MODFLOW-6 SFR input; created by SFRmaker v. 0.11.3.post37+gad8cb97

BEGIN Options
  save_flows
  mover
  budget fileout sm_tmr.sfr.out.bin
  stage fileout sm_tmr.sfr.stage.bin
  unit_conversion  86400.0
  auxiliary line_id
END Options

BEGIN Dimensions
  NREACHES 234
END Dimensions

BEGIN Packagedata
  open/close external\sm_tmr_packagedata.dat
END Packagedata

BEGIN Connectiondata
  1 -2
  2 -3 1
  3 -4 2
  4 -5 3
  5 -6 4
  6 -8 5
  7 -9
  8 -12 6
  9 -10 7
  10 -11 9
  11 -12 10
  12 -13 8 11
  13 -14 12
  14 -15 13
  15 -16 14
  16 -17 15
  17 -18 16
  18 -19 17
  19 -20 18
  20 -21 19
  21 -22 20
  22 -23 21
  23 -24 22
  24 -31 23
  25 -26
  26 -27 25
  27 -28 26
  28 -29 27
  29 -30 28
  30 -32 29
  31 -35 24
  32 -33 30
  33 -34 32
  34 -38 33
  35 -36 31
  36 -39 35
  37 -40
  38 -49 34
  39 -59 36
  40 -41 37
  41 -42 40
  42 -43 41
  43 -44 42
  44 -45 43
  45 -46 44
  46 -47 45
  47 -48 46
  48 -62 47
  49 -50 38
  50 -51 49
  51 -52 50
  52 -75 51
  53 -54
  54 -55 53
  55 -56 54
  56 -75 55
  57 -58
  58 -79 57
  59 -60 39
  60 -61 59
  61 -81 60
  62 -63 48
  63 -64 62
  64 -65 63
  65 -66 64
  66 -67 65
  67 -68 66
  68 -69 67
  69 -70 68
  70 -71 69
  71 -72 70
  72 -81 71
  73 -74
  74 -84 73
  75 -76 52 56
  76 -77 75
  77 -78 76
  78 -85 77
  79 -80 58
  80 -88 79
  81 -82 61 72
  82 -83 81
  83 -93 82
  84 -95 74
  85 -86 78
  86 -87 85
  87 -101 86
  88 -89 80
  89 -90 88
  90 -91 89
  91 -92 90
  92 -103 91
  93 -94 83
  94 -103 93
  95 -96 84
  96 -97 95
  97 -98 96
  98 -99 97
  99 -100 98
  100 -107 99
  101 -102 87
  102 -113 101
  103 -104 92 94
  104 -105 103
  105 -106 104
  106 -116 105
  107 -108 100
  108 -109 107
  109 -110 108
  110 -111 109
  111 -112 110
  112 -117 111
  113 -114 102
  114 -115 113
  115 -118 114
  116 -118 106
  117 -120 112
  118 -119 115 116
  119 -133 118
  120 -135 117
  121 -122
  122 -123 121
  123 -124 122
  124 -125 123
  125 -126 124
  126 -127 125
  127 -128 126
  128 -129 127
  129 -130 128
  130 -131 129
  131 -132 130
  132 -138 131
  133 -134 119
  134 -143 133
  135 -136 120
  136 -137 135
  137 -143 136
  138 -139 132
  139 -140 138
  140 -141 139
  141 -142 140
  142 -146 141
  143 -144 134 137
  144 -145 143
  145 -146 144
  146 -147 142 145
  147 -148 146
  148 -149 147
  149 -150 148
  150 -151 149
  151 -152 150
  152 -153 151
  153 -154 152
  154 -155 153
  155 -156 154
  156 -157 155
  157 -158 156
  158 -159 157
  159 -160 158
  160 -161 159
  161 -162 160
  162 -167 161
  163 -164
  164 -165 163
  165 -166 164
  166 -168 165
  167 -171 162
  168 -169 166
  169 -170 168
  170 -172 169
  171 -174 167
  172 -173 170
  173 -184 172
  174 -175 171
  175 -176 174
  176 -177 175
  177 -178 176
  178 -179 177
  179 -180 178
  180 -181 179
  181 -190 180
  182 -183
  183 -195 182
  184 -185 173
  185 -186 184
  186 -187 185
  187 -188 186
  188 -189 187
  189 -195 188
  190 -191 181
  191 -196 190
  192 -193
  193 -194 192
  194 -198 193
  195 -202 183 189
  196 -197 191
  197 -206 196
  198 -199 194
  199 -200 198
  200 -201 199
  201 -209 200
  202 -203 195
  203 -204 202
  204 -205 203
  205 -217 204
  206 -220 197
  207 -208
  208 -226 207
  209 -232 201
  210 -234
  211 -212
  212 -213 211
  213 -214 212
  214 -215 213
  215 -216 214
  216 215
  217 -218 205
  218 -219 217
  219 218
  220 -221 206
  221 -222 220
  222 -223 221
  223 -224 222
  224 223
  225 
  226 -227 208
  227 -228 226
  228 -229 227
  229 -230 228
  230 -231 229
  231 230
  232 -233 209
  233 232
  234 210
END Connectiondata
