# sm_tmr model version 0.post67.dev0+g98604a4
# File generated by Flopy version 3.10.0.dev1 on 11/19/2025 at 17:46:50.
# via modflow-setup version 0.6.0 at 2025-11-19 17:46:51
BEGIN options
  LIST  sm_tmr.list
  PRINT_INPUT
  SAVE_FLOWS
  NEWTON
END options

BEGIN packages
  DIS6  sm_tmr.dis  dis
  IC6  sm_tmr.ic  ic
  NPF6  sm_tmr.npf  npf
  STO6  sm_tmr.sto  sto
  RCH6  sm_tmr.rcha  rcha_0
  OC6  sm_tmr.oc  oc
  RIV6  sm_tmr.riv  riv_0
  SFR6  sm_tmr.sfr  sfr_0
  WEL6  sm_tmr.wel  wel_0
END packages

