# File generated by Flopy version 3.10.0.dev1 on 11/18/2025 at 19:25:23.
BEGIN OPTIONS
  BUDGET  FILEOUT  0101_0102_0103_0105_MF6_SS_Unconfined_250.cbc
  HEAD  FILEOUT  0101_0102_0103_0105_MF6_SS_Unconfined_250.hds
END OPTIONS

BEGIN PERIOD  1
  SAVE  head  last
  SAVE  budget  last
END PERIOD  1

