# File generated by Flopy version 3.10.0.dev1 on 11/18/2025 at 19:24:18.
BEGIN OPTIONS
  NEWTON  UNDER_RELAXATION
END OPTIONS

BEGIN PACKAGES
  chd6  0101_0102_0103_0105_MF6_SS_Unconfined_250.chd
  ghb6  0101_0102_0103_0105_MF6_SS_Unconfined_250.ghb.ghb-nlcd  ghb-nlcd
  drn6  0101_0102_0103_0105_MF6_SS_Unconfined_250.drn
  dis6  0101_0102_0103_0105_MF6_SS_Unconfined_250.dis
  ic6  0101_0102_0103_0105_MF6_SS_Unconfined_250.ic
  npf6  0101_0102_0103_0105_MF6_SS_Unconfined_250.npf
  oc6  0101_0102_0103_0105_MF6_SS_Unconfined_250.oc
  rch6  0101_0102_0103_0105_MF6_SS_Unconfined_250.rch
END PACKAGES

