# File generated by Flopy version 3.10.0.dev1 on 11/18/2025 at 19:24:18.
BEGIN OPTIONS
  TIME_UNITS  days
END OPTIONS

BEGIN DIMENSIONS
  NPER  1
END DIMENSIONS

BEGIN PERIODDATA
       1.00000000  1       1.00000000
END PERIODDATA

