# File generated by Flopy version 3.10.0.dev1 on 11/18/2025 at 19:24:18.
BEGIN OPTIONS
  PRINT_OPTION  summary
  COMPLEXITY  complex
END OPTIONS

BEGIN NONLINEAR
  OUTER_MAXIMUM  1500
END NONLINEAR

BEGIN LINEAR
  INNER_MAXIMUM  200
END LINEAR

