# File generated by Flopy version 3.10.0.dev1 on 11/18/2025 at 19:24:46.
BEGIN OPTIONS
  SAVE_FLOWS
END OPTIONS

BEGIN DIMENSIONS
  MAXBOUND  75806
END DIMENSIONS

BEGIN PERIOD  1
  1 1 532 1.32850571E+02 6.25000000E+04
  1 1 533 1.31925674E+02 6.25000000E+04
  1 2 529 1.32121506E+02 6.25000000E+04
  1 2 530 1.34073059E+02 6.25000000E+04
  1 3 517 1.32404068E+02 6.25000000E+04
  1 3 535 1.31194046E+02 6.25000000E+04
  1 5 542 1.32757675E+02 6.25000000E+04
  1 6 548 1.29987488E+02 6.25000000E+04
  1 7 504 1.44288605E+02 8.75000000E+04
  1 7 505 1.44527283E+02 8.75000000E+04
  1 7 506 1.43155792E+02 8.75000000E+04
  1 7 507 1.39558960E+02 8.75000000E+04
  1 7 508 1.38267410E+02 8.75000000E+04
  1 7 511 1.43138916E+02 8.75000000E+04
  1 7 512 1.48835541E+02 8.75000000E+04
  1 7 551 1.34354401E+02 6.25000000E+04
  1 7 552 1.34234924E+02 6.25000000E+04
  1 8 501 1.40721191E+02 8.75000000E+04
  1 8 502 1.52951111E+02 8.75000000E+04
  1 9 499 1.42015182E+02 8.75000000E+04
  1 9 500 1.54748810E+02 8.75000000E+04
  1 9 501 1.68826828E+02 8.75000000E+04
  1 10 498 1.50357620E+02 8.75000000E+04
  1 10 499 1.65510757E+02 8.75000000E+04
  1 12 495 1.47769211E+02 8.75000000E+04
  1 13 494 1.51974121E+02 8.75000000E+04
  1 14 494 1.71433914E+02 8.75000000E+04
  1 16 493 1.81242569E+02 8.75000000E+04
  1 18 570 1.30845139E+02 6.25000000E+04
  1 19 572 1.30169601E+02 6.25000000E+04
  1 20 573 1.31204025E+02 6.25000000E+04
  1 22 584 1.32599655E+02 6.25000000E+04
  1 26 493 1.81492905E+02 8.75000000E+04
  1 26 589 1.28869186E+02 6.25000000E+04
  1 27 493 1.79940765E+02 8.75000000E+04
  1 27 589 1.31831070E+02 6.25000000E+04
  1 27 590 1.29783585E+02 6.25000000E+04
  1 28 493 1.60936066E+02 8.75000000E+04
  1 28 596 1.30195358E+02 6.25000000E+04
  1 29 494 1.73174454E+02 8.75000000E+04
  1 29 600 1.31109863E+02 6.25000000E+04
  1 30 603 1.29250626E+02 6.25000000E+04
  1 31 495 1.78579941E+02 8.75000000E+04
  1 31 606 1.28282120E+02 6.25000000E+04
  1 31 607 1.29544128E+02 6.25000000E+04
  1 33 496 1.90224884E+02 8.75000000E+04
  1 34 612 1.28258942E+02 6.25000000E+04
  1 35 613 1.28896439E+02 6.25000000E+04
  1 35 614 1.29760696E+02 6.25000000E+04
  1 36 614 1.30684265E+02 6.25000000E+04
  1 36 615 1.29376007E+02 6.25000000E+04
  1 37 497 1.52888062E+02 8.75000000E+04
  1 37 615 1.29110687E+02 6.25000000E+04
  1 37 616 1.29708267E+02 6.25000000E+04
  1 38 552 2.06376053E+02 8.75000000E+04
  1 38 617 1.29774811E+02 6.25000000E+04
  1 39 499 1.66410767E+02 8.75000000E+04
  1 39 551 2.09116623E+02 8.75000000E+04
  1 39 552 2.08062378E+02 8.75000000E+04
  1 39 618 1.29014343E+02 6.25000000E+04
  1 40 499 1.44713959E+02 8.75000000E+04
  1 40 526 1.91106171E+02 8.75000000E+04
  1 40 619 1.29039917E+02 6.25000000E+04
  1 40 620 1.28475021E+02 6.25000000E+04
  1 41 499 1.42958420E+02 8.75000000E+04
  1 41 526 1.78821091E+02 8.75000000E+04
  1 41 527 1.90658081E+02 8.75000000E+04
  1 41 621 1.30836304E+02 6.25000000E+04
  1 41 622 1.31480225E+02 6.25000000E+04
  1 41 627 1.28148560E+02 6.25000000E+04
  1 41 628 1.28927322E+02 6.25000000E+04
  1 42 498 1.42619354E+02 8.75000000E+04
  1 42 527 1.78610458E+02 8.75000000E+04
  1 42 528 1.87671310E+02 8.75000000E+04
  1 42 529 1.96604218E+02 8.75000000E+04
  1 43 528 1.77714737E+02 8.75000000E+04
  1 43 529 1.80439850E+02 8.75000000E+04
  1 43 530 1.88905441E+02 8.75000000E+04
  1 43 632 1.30064835E+02 6.25000000E+04
  1 43 633 1.29394730E+02 6.25000000E+04
  1 44 494 1.43991531E+02 8.75000000E+04
  1 44 528 1.77399994E+02 8.75000000E+04
  1 44 529 1.77399994E+02 8.75000000E+04
  1 44 530 1.81170807E+02 8.75000000E+04
  1 44 531 1.91917587E+02 8.75000000E+04
  1 44 634 1.28483978E+02 6.25000000E+04
  1 45 488 1.45432098E+02 8.75000000E+04
  1 45 529 1.77399994E+02 8.75000000E+04
  1 45 530 1.77519974E+02 8.75000000E+04
  1 45 531 1.82925323E+02 8.75000000E+04
  1 46 487 1.44991180E+02 8.75000000E+04
  1 46 529 1.77399994E+02 8.75000000E+04
  1 46 530 1.77399994E+02 8.75000000E+04
  1 46 531 1.77454422E+02 8.75000000E+04
  1 46 532 1.79327744E+02 8.75000000E+04
  1 46 533 1.79863480E+02 8.75000000E+04
  1 46 534 1.80324997E+02 8.75000000E+04
  1 46 535 1.80598328E+02 8.75000000E+04
  1 47 486 1.45250916E+02 8.75000000E+04
  1 47 487 1.57142456E+02 8.75000000E+04
  1 47 530 1.77399994E+02 8.75000000E+04
  1 47 531 1.77399994E+02 8.75000000E+04
  1 47 532 1.77428986E+02 8.75000000E+04
  1 47 533 1.77399994E+02 8.75000000E+04
  1 47 534 1.77584579E+02 8.75000000E+04
  1 47 535 1.77994873E+02 8.75000000E+04
  1 47 536 1.87537079E+02 8.75000000E+04
  1 48 467 1.53352844E+02 8.75000000E+04
  1 48 529 1.77399994E+02 8.75000000E+04
  1 48 530 1.77399994E+02 8.75000000E+04
  1 48 531 1.77399948E+02 8.75000000E+04
  1 48 532 1.77399841E+02 8.75000000E+04
  1 48 533 1.77399994E+02 8.75000000E+04
  1 48 534 1.77399994E+02 8.75000000E+04
  1 48 535 1.77399994E+02 8.75000000E+04
  1 48 536 1.79936890E+02 8.75000000E+04
  1 48 537 1.92942230E+02 8.75000000E+04
  1 49 482 1.45367966E+02 8.75000000E+04
  1 49 483 1.44783890E+02 8.75000000E+04
  1 49 529 1.77399994E+02 8.75000000E+04
  1 49 530 1.77452103E+02 8.75000000E+04
  1 49 531 1.79083984E+02 8.75000000E+04
  1 49 534 1.77399994E+02 8.75000000E+04
  1 49 535 1.77399994E+02 8.75000000E+04
  1 49 536 1.77399963E+02 8.75000000E+04
  1 49 537 1.83825668E+02 8.75000000E+04
  1 50 458 1.54143875E+02 8.75000000E+04
  1 50 480 1.48392059E+02 8.75000000E+04
  1 50 529 1.77399994E+02 8.75000000E+04
  1 50 530 1.77858551E+02 8.75000000E+04
  1 50 531 1.82662750E+02 8.75000000E+04
  1 50 535 1.77399994E+02 8.75000000E+04
  1 50 536 1.77399994E+02 8.75000000E+04
  1 50 537 1.77944931E+02 8.75000000E+04
  1 50 538 1.85923538E+02 8.75000000E+04
  1 51 529 1.77399994E+02 8.75000000E+04
  1 51 530 1.77566299E+02 8.75000000E+04
  1 51 531 1.86600983E+02 8.75000000E+04
  1 51 536 1.77399994E+02 8.75000000E+04
  1 51 537 1.77399994E+02 8.75000000E+04
  1 51 538 1.81669968E+02 8.75000000E+04
  1 52 528 1.78081360E+02 8.75000000E+04
  1 52 529 1.77399994E+02 8.75000000E+04
  1 52 530 1.77399994E+02 8.75000000E+04
  1 52 531 1.82082840E+02 8.75000000E+04
  1 52 537 1.77399994E+02 8.75000000E+04
  1 52 538 1.77524612E+02 8.75000000E+04
  1 52 539 1.83417496E+02 8.75000000E+04
  1 53 525 1.80160507E+02 8.75000000E+04
  1 53 527 1.78624725E+02 8.75000000E+04
  1 53 528 1.77399994E+02 8.75000000E+04
  1 53 529 1.77399994E+02 8.75000000E+04
  1 53 530 1.77399994E+02 8.75000000E+04
  1 53 531 1.77810822E+02 8.75000000E+04
  1 53 532 1.83848022E+02 8.75000000E+04
  1 53 537 1.77399994E+02 8.75000000E+04
  1 53 538 1.77399994E+02 8.75000000E+04
  1 53 539 1.78180756E+02 8.75000000E+04
  1 53 540 1.88655762E+02 8.75000000E+04
  1 54 525 1.77399994E+02 8.75000000E+04
  1 54 526 1.77420807E+02 8.75000000E+04
  1 54 527 1.77399994E+02 8.75000000E+04
  1 54 528 1.77399994E+02 8.75000000E+04
  1 54 529 1.77399994E+02 8.75000000E+04
  1 54 530 1.77399994E+02 8.75000000E+04
  1 54 531 1.77399994E+02 8.75000000E+04
  1 54 532 1.77917679E+02 8.75000000E+04
  1 54 533 1.81105591E+02 8.75000000E+04
  1 54 536 1.78788361E+02 8.75000000E+04
  1 54 537 1.77399994E+02 8.75000000E+04
  1 54 538 1.77399994E+02 8.75000000E+04
  1 54 539 1.77399994E+02 8.75000000E+04
  1 54 540 1.83212006E+02 8.75000000E+04
  1 55 453 1.63025116E+02 8.75000000E+04
  1 55 526 1.77495026E+02 8.75000000E+04
  1 55 527 1.77399994E+02 8.75000000E+04
  1 55 528 1.77399994E+02 8.75000000E+04
  1 55 529 1.77399994E+02 8.75000000E+04
  1 55 530 1.77399994E+02 8.75000000E+04
  1 55 531 1.77399994E+02 8.75000000E+04
  1 55 532 1.77399994E+02 8.75000000E+04
  1 55 533 1.77399994E+02 8.75000000E+04
  1 55 534 1.77433548E+02 8.75000000E+04
  1 55 535 1.77615982E+02 8.75000000E+04
  1 55 536 1.77402771E+02 8.75000000E+04
  1 55 537 1.77399994E+02 8.75000000E+04
  1 55 538 1.77399994E+02 8.75000000E+04
  1 55 539 1.77399994E+02 8.75000000E+04
  1 55 540 1.80585938E+02 8.75000000E+04
  1 55 541 1.89960907E+02 8.75000000E+04
  1 56 528 1.77399994E+02 8.75000000E+04
  1 56 529 1.77399994E+02 8.75000000E+04
  1 56 530 1.77399994E+02 8.75000000E+04
  1 56 531 1.77399994E+02 8.75000000E+04
  1 56 532 1.77399994E+02 8.75000000E+04
  1 56 533 1.77399994E+02 8.75000000E+04
  1 56 534 1.77399994E+02 8.75000000E+04
  1 56 535 1.77399994E+02 8.75000000E+04
  1 56 536 1.77399994E+02 8.75000000E+04
  1 56 537 1.77399994E+02 8.75000000E+04
  1 56 538 1.77399994E+02 8.75000000E+04
  1 56 539 1.77399994E+02 8.75000000E+04
  1 56 540 1.78906342E+02 8.75000000E+04
  1 56 541 1.88189346E+02 8.75000000E+04
  1 56 644 1.28613770E+02 6.25000000E+04
  1 57 529 1.78140778E+02 8.75000000E+04
  1 57 530 1.77399994E+02 8.75000000E+04
  1 57 531 1.77399994E+02 8.75000000E+04
  1 57 532 1.77399994E+02 8.75000000E+04
  1 57 533 1.77399994E+02 8.75000000E+04
  1 57 534 1.77399994E+02 8.75000000E+04
  1 57 535 1.77399994E+02 8.75000000E+04
  1 57 536 1.77399994E+02 8.75000000E+04
  1 57 537 1.77399994E+02 8.75000000E+04
  1 57 538 1.77399994E+02 8.75000000E+04
  1 57 539 1.77399994E+02 8.75000000E+04
  1 57 540 1.77418533E+02 8.75000000E+04
  1 57 541 1.82586487E+02 8.75000000E+04
  1 58 450 1.48399445E+02 8.75000000E+04
  1 58 531 1.77513062E+02 8.75000000E+04
  1 58 532 1.77399994E+02 8.75000000E+04
  1 58 533 1.77399994E+02 8.75000000E+04
  1 58 534 1.77399994E+02 8.75000000E+04
  1 58 535 1.77399994E+02 8.75000000E+04
  1 58 536 1.77399994E+02 8.75000000E+04
  1 58 537 1.77399994E+02 8.75000000E+04
  1 58 538 1.77399994E+02 8.75000000E+04
  1 58 539 1.77399994E+02 8.75000000E+04
  1 58 540 1.77399994E+02 8.75000000E+04
  1 58 541 1.77811554E+02 8.75000000E+04
  1 58 542 1.83256546E+02 8.75000000E+04
  1 58 646 1.28717911E+02 6.25000000E+04
  1 59 449 1.51302490E+02 8.75000000E+04
  1 59 502 2.38997299E+02 8.75000000E+04
  1 59 533 1.77399994E+02 8.75000000E+04
  1 59 534 1.77399994E+02 8.75000000E+04
  1 59 535 1.77399994E+02 8.75000000E+04
  1 59 536 1.77399994E+02 8.75000000E+04
  1 59 537 1.77399994E+02 8.75000000E+04
  1 59 538 1.77399994E+02 8.75000000E+04
  1 59 539 1.77399994E+02 8.75000000E+04
  1 59 540 1.77399994E+02 8.75000000E+04
  1 59 541 1.77399994E+02 8.75000000E+04
  1 59 542 1.79441238E+02 8.75000000E+04
  1 59 543 1.83789017E+02 8.75000000E+04
  1 59 544 1.81326080E+02 8.75000000E+04
  1 59 545 1.84770767E+02 8.75000000E+04
  1 59 549 1.81019196E+02 8.75000000E+04
  1 59 550 1.81581711E+02 8.75000000E+04
  1 59 647 1.39584808E+02 6.25000000E+04
  1 59 648 1.30451111E+02 6.25000000E+04
  1 60 440 1.53155334E+02 8.75000000E+04
  1 60 446 1.55568420E+02 8.75000000E+04
  1 60 448 1.72958160E+02 8.75000000E+04
  1 60 449 1.91164780E+02 8.75000000E+04
  1 60 534 1.77754120E+02 8.75000000E+04
  1 60 535 1.77399994E+02 8.75000000E+04
  1 60 536 1.77399994E+02 8.75000000E+04
  1 60 537 1.77399994E+02 8.75000000E+04
  1 60 538 1.77399994E+02 8.75000000E+04
  1 60 539 1.77399994E+02 8.75000000E+04
  1 60 540 1.77399994E+02 8.75000000E+04
  1 60 541 1.77399994E+02 8.75000000E+04
  1 60 542 1.77399994E+02 8.75000000E+04
  1 60 543 1.78854385E+02 8.75000000E+04
  1 60 544 1.77399826E+02 8.75000000E+04
  1 60 545 1.77399994E+02 8.75000000E+04
  1 60 546 1.77712479E+02 8.75000000E+04
  1 60 548 1.78659500E+02 8.75000000E+04
  1 60 549 1.77526093E+02 8.75000000E+04
  1 60 550 1.77721649E+02 8.75000000E+04
  1 60 551 1.79303329E+02 8.75000000E+04
  1 60 649 1.36477707E+02 6.25000000E+04
  1 60 650 1.31875336E+02 6.25000000E+04
  1 60 651 1.33700302E+02 6.25000000E+04
  1 61 536 1.77504471E+02 8.75000000E+04
  1 61 537 1.77399994E+02 8.75000000E+04
  1 61 538 1.77399994E+02 8.75000000E+04
  1 61 539 1.77399994E+02 8.75000000E+04
  1 61 540 1.77399994E+02 8.75000000E+04
  1 61 541 1.77399994E+02 8.75000000E+04
  1 61 542 1.77399994E+02 8.75000000E+04
  1 61 543 1.77399994E+02 8.75000000E+04
  1 61 544 1.77399994E+02 8.75000000E+04
  1 61 545 1.77399994E+02 8.75000000E+04
  1 61 546 1.77399994E+02 8.75000000E+04
  1 61 547 1.77399994E+02 8.75000000E+04
  1 61 548 1.77399994E+02 8.75000000E+04
  1 61 549 1.77399994E+02 8.75000000E+04
  1 61 550 1.77399994E+02 8.75000000E+04
  1 61 551 1.77399994E+02 8.75000000E+04
  1 61 552 1.78849838E+02 8.75000000E+04
  1 62 538 1.77977676E+02 8.75000000E+04
  1 62 539 1.77399857E+02 8.75000000E+04
  1 62 540 1.77399994E+02 8.75000000E+04
  1 62 541 1.77399994E+02 8.75000000E+04
  1 62 542 1.77399994E+02 8.75000000E+04
  1 62 543 1.77399994E+02 8.75000000E+04
  1 62 544 1.77399994E+02 8.75000000E+04
  1 62 545 1.77399994E+02 8.75000000E+04
  1 62 546 1.77399994E+02 8.75000000E+04
  1 62 547 1.77399994E+02 8.75000000E+04
  1 62 548 1.77399994E+02 8.75000000E+04
  1 62 549 1.77399994E+02 8.75000000E+04
  1 62 550 1.77399994E+02 8.75000000E+04
  1 62 551 1.77399994E+02 8.75000000E+04
  1 62 552 1.77399994E+02 8.75000000E+04
  1 62 553 1.79044205E+02 8.75000000E+04
  1 63 540 1.79260910E+02 8.75000000E+04
  1 63 541 1.77555618E+02 8.75000000E+04
  1 63 542 1.77399994E+02 8.75000000E+04
  1 63 543 1.77399994E+02 8.75000000E+04
  1 63 544 1.77399994E+02 8.75000000E+04
  1 63 545 1.77399994E+02 8.75000000E+04
  1 63 546 1.77399994E+02 8.75000000E+04
  1 63 547 1.77399994E+02 8.75000000E+04
  1 63 548 1.77399994E+02 8.75000000E+04
  1 63 549 1.77399994E+02 8.75000000E+04
  1 63 550 1.77399994E+02 8.75000000E+04
  1 63 551 1.77399994E+02 8.75000000E+04
  1 63 552 1.77399994E+02 8.75000000E+04
  1 63 553 1.77399994E+02 8.75000000E+04
  1 63 554 1.79403915E+02 8.75000000E+04
  1 63 555 1.90149475E+02 8.75000000E+04
  1 64 289 1.75192520E+02 8.75000000E+04
  1 64 290 1.75127151E+02 8.75000000E+04
  1 64 460 3.39765991E+02 8.75000000E+04
  1 64 544 1.77399994E+02 8.75000000E+04
  1 64 545 1.77399994E+02 8.75000000E+04
  1 64 546 1.77399994E+02 8.75000000E+04
  1 64 547 1.77399994E+02 8.75000000E+04
  1 64 548 1.77399994E+02 8.75000000E+04
  1 64 549 1.77399994E+02 8.75000000E+04
  1 64 550 1.77399994E+02 8.75000000E+04
  1 64 551 1.77399994E+02 8.75000000E+04
  1 64 552 1.77399994E+02 8.75000000E+04
  1 64 553 1.77399994E+02 8.75000000E+04
  1 64 554 1.77399994E+02 8.75000000E+04
  1 64 555 1.78815872E+02 8.75000000E+04
  1 64 556 1.82993103E+02 8.75000000E+04
  1 64 557 1.86148575E+02 8.75000000E+04
  1 64 558 1.81540375E+02 8.75000000E+04
  1 64 559 1.80933380E+02 8.75000000E+04
  1 64 560 1.80937454E+02 8.75000000E+04
  1 64 586 1.74709473E+02 8.75000000E+04
  1 65 290 1.75143646E+02 8.75000000E+04
  1 65 480 3.00892456E+02 8.75000000E+04
  1 65 546 1.77399994E+02 8.75000000E+04
  1 65 547 1.77399994E+02 8.75000000E+04
  1 65 548 1.77399994E+02 8.75000000E+04
  1 65 549 1.77399994E+02 8.75000000E+04
  1 65 550 1.77399994E+02 8.75000000E+04
  1 65 551 1.77399994E+02 8.75000000E+04
  1 65 552 1.77399994E+02 8.75000000E+04
  1 65 553 1.77399994E+02 8.75000000E+04
  1 65 554 1.77399994E+02 8.75000000E+04
  1 65 555 1.77399994E+02 8.75000000E+04
  1 65 556 1.77399994E+02 8.75000000E+04
  1 65 557 1.77399994E+02 8.75000000E+04
  1 65 558 1.77399994E+02 8.75000000E+04
  1 65 559 1.77591461E+02 8.75000000E+04
  1 65 560 1.78819244E+02 8.75000000E+04
  1 66 289 1.75173935E+02 8.75000000E+04
  1 66 290 1.75149216E+02 8.75000000E+04
  1 66 438 1.66373459E+02 8.75000000E+04
  1 66 480 2.85296326E+02 8.75000000E+04
  1 66 547 1.77399994E+02 8.75000000E+04
  1 66 548 1.77399994E+02 8.75000000E+04
  1 66 549 1.77399994E+02 8.75000000E+04
  1 66 550 1.77399994E+02 8.75000000E+04
  1 66 551 1.77399994E+02 8.75000000E+04
  1 66 552 1.77399994E+02 8.75000000E+04
  1 66 553 1.77399994E+02 8.75000000E+04
  1 66 554 1.77399994E+02 8.75000000E+04
  1 66 555 1.77399994E+02 8.75000000E+04
  1 66 556 1.77399994E+02 8.75000000E+04
  1 66 557 1.77399994E+02 8.75000000E+04
  1 66 558 1.77399994E+02 8.75000000E+04
  1 66 559 1.77400635E+02 8.75000000E+04
  1 66 560 1.78047043E+02 8.75000000E+04
  1 66 561 1.79752182E+02 8.75000000E+04
  1 66 562 1.78501907E+02 8.75000000E+04
  1 66 563 1.77677155E+02 8.75000000E+04
  1 66 564 1.79277847E+02 8.75000000E+04
  1 67 290 1.75149002E+02 8.75000000E+04
  1 67 291 1.75149002E+02 8.75000000E+04
  1 67 548 1.77399994E+02 8.75000000E+04
  1 67 549 1.77399994E+02 8.75000000E+04
  1 67 550 1.77399994E+02 8.75000000E+04
  1 67 551 1.77399994E+02 8.75000000E+04
  1 67 552 1.77399994E+02 8.75000000E+04
  1 67 553 1.77399994E+02 8.75000000E+04
  1 67 554 1.77399994E+02 8.75000000E+04
  1 67 555 1.77399994E+02 8.75000000E+04
  1 67 556 1.77399918E+02 8.75000000E+04
  1 67 557 1.77398148E+02 8.75000000E+04
  1 67 558 1.77394714E+02 8.75000000E+04
  1 67 559 1.77389145E+02 8.75000000E+04
  1 67 560 1.77384277E+02 8.75000000E+04
  1 67 561 1.78806931E+02 8.75000000E+04
  1 67 562 1.77719223E+02 8.75000000E+04
  1 67 563 1.80969666E+02 8.75000000E+04
  1 67 564 1.80191849E+02 8.75000000E+04
  1 68 266 4.00012085E+02 8.75000000E+04
  1 68 291 1.75149002E+02 8.75000000E+04
  1 68 550 1.77416122E+02 8.75000000E+04
  1 68 551 1.77409653E+02 8.75000000E+04
  1 68 552 1.77446335E+02 8.75000000E+04
  1 68 553 1.77413788E+02 8.75000000E+04
  1 68 554 1.77401611E+02 8.75000000E+04
  1 68 555 1.77397842E+02 8.75000000E+04
  1 68 556 1.77394165E+02 8.75000000E+04
  1 68 557 1.77383163E+02 8.75000000E+04
  1 68 558 1.77370255E+02 8.75000000E+04
  1 68 559 1.77363007E+02 8.75000000E+04
  1 68 560 1.77373383E+02 8.75000000E+04
  1 68 561 1.77362244E+02 8.75000000E+04
  1 68 562 1.77210587E+02 8.75000000E+04
  1 68 563 1.91500977E+02 8.75000000E+04
  1 68 564 1.89456924E+02 8.75000000E+04
  1 68 566 2.06987778E+02 8.75000000E+04
  1 69 266 3.92881012E+02 8.75000000E+04
  1 69 267 4.13883240E+02 8.75000000E+04
  1 69 290 1.75332840E+02 8.75000000E+04
  1 69 291 1.75149002E+02 8.75000000E+04
  1 69 554 1.77418198E+02 8.75000000E+04
  1 69 555 1.77391037E+02 8.75000000E+04
  1 69 556 1.77391907E+02 8.75000000E+04
  1 69 557 1.77354446E+02 8.75000000E+04
  1 69 558 1.77344284E+02 8.75000000E+04
  1 69 559 1.77333649E+02 8.75000000E+04
  1 69 560 1.77324478E+02 8.75000000E+04
  1 69 561 1.77298248E+02 8.75000000E+04
  1 69 562 1.77221130E+02 8.75000000E+04
  1 69 563 1.80476181E+02 8.75000000E+04
  1 69 564 1.86661896E+02 8.75000000E+04
  1 69 565 1.77728683E+02 8.75000000E+04
  1 69 566 1.81224182E+02 8.75000000E+04
  1 69 567 1.90850006E+02 8.75000000E+04
  1 69 568 1.92068253E+02 8.75000000E+04
  1 69 569 1.98172775E+02 8.75000000E+04
  1 70 266 3.93216064E+02 8.75000000E+04
  1 70 267 4.06813232E+02 8.75000000E+04
  1 70 291 1.75149002E+02 8.75000000E+04
  1 70 292 1.75149002E+02 8.75000000E+04
  1 70 554 1.77375702E+02 8.75000000E+04
  1 70 555 1.77360123E+02 8.75000000E+04
  1 70 556 1.77358612E+02 8.75000000E+04
  1 70 557 1.77323120E+02 8.75000000E+04
  1 70 558 1.77316330E+02 8.75000000E+04
  1 70 559 1.77307434E+02 8.75000000E+04
  1 70 560 1.77298370E+02 8.75000000E+04
  1 70 561 1.77290924E+02 8.75000000E+04
  1 70 562 1.77290970E+02 8.75000000E+04
  1 70 563 1.77298889E+02 8.75000000E+04
  1 70 564 1.77487106E+02 8.75000000E+04
  1 70 565 1.77153366E+02 8.75000000E+04
  1 70 566 1.77179977E+02 8.75000000E+04
  1 70 567 1.77694717E+02 8.75000000E+04
  1 70 568 1.77750168E+02 8.75000000E+04
  1 70 569 1.78096909E+02 8.75000000E+04
  1 70 570 1.79688110E+02 8.75000000E+04
  1 70 571 1.83780807E+02 8.75000000E+04
  1 71 292 1.75149002E+02 8.75000000E+04
  1 71 555 1.77308609E+02 8.75000000E+04
  1 71 556 1.77274414E+02 8.75000000E+04
  1 71 557 1.77275421E+02 8.75000000E+04
  1 71 558 1.77279892E+02 8.75000000E+04
  1 71 559 1.77273254E+02 8.75000000E+04
  1 71 560 1.77268082E+02 8.75000000E+04
  1 71 561 1.77262283E+02 8.75000000E+04
  1 71 562 1.77256958E+02 8.75000000E+04
  1 71 563 1.77239380E+02 8.75000000E+04
  1 71 564 1.77230347E+02 8.75000000E+04
  1 71 565 1.77244522E+02 8.75000000E+04
  1 71 566 1.77250000E+02 8.75000000E+04
  1 71 567 1.77250000E+02 8.75000000E+04
  1 71 568 1.77250000E+02 8.75000000E+04
  1 71 569 1.77250000E+02 8.75000000E+04
  1 71 570 1.77250000E+02 8.75000000E+04
  1 71 571 1.78547562E+02 8.75000000E+04
  1 71 572 1.81095016E+02 8.75000000E+04
  1 72 292 1.75149002E+02 8.75000000E+04
  1 72 440 1.78809326E+02 8.75000000E+04
  1 72 554 1.78226181E+02 8.75000000E+04
  1 72 555 1.77281372E+02 8.75000000E+04
  1 72 556 1.77258392E+02 8.75000000E+04
  1 72 557 1.77251541E+02 8.75000000E+04
  1 72 558 1.77254822E+02 8.75000000E+04
  1 72 559 1.77254929E+02 8.75000000E+04
  1 72 560 1.77252518E+02 8.75000000E+04
  1 72 561 1.77250107E+02 8.75000000E+04
  1 72 562 1.77250000E+02 8.75000000E+04
  1 72 563 1.77250000E+02 8.75000000E+04
  1 72 564 1.77250000E+02 8.75000000E+04
  1 72 565 1.77250000E+02 8.75000000E+04
  1 72 566 1.77250000E+02 8.75000000E+04
  1 72 567 1.77250000E+02 8.75000000E+04
  1 72 568 1.77250000E+02 8.75000000E+04
  1 72 569 1.77250000E+02 8.75000000E+04
  1 72 570 1.77250000E+02 8.75000000E+04
  1 72 571 1.77250000E+02 8.75000000E+04
  1 72 572 1.77267227E+02 8.75000000E+04
  1 72 573 1.77495987E+02 8.75000000E+04
  1 72 574 1.78054489E+02 8.75000000E+04
  1 72 575 1.79697006E+02 8.75000000E+04
  1 72 576 1.84492691E+02 8.75000000E+04
  1 73 292 1.75149002E+02 8.75000000E+04
  1 73 440 1.60889801E+02 8.75000000E+04
  1 73 554 1.77416794E+02 8.75000000E+04
  1 73 555 1.77234009E+02 8.75000000E+04
  1 73 556 1.77252289E+02 8.75000000E+04
  1 73 557 1.77251831E+02 8.75000000E+04
  1 73 558 1.79384277E+02 8.75000000E+04
  1 73 569 1.77439514E+02 8.75000000E+04
  1 73 570 1.77356064E+02 8.75000000E+04
  1 73 571 1.77250000E+02 8.75000000E+04
  1 73 572 1.77250000E+02 8.75000000E+04
  1 73 573 1.77250000E+02 8.75000000E+04
  1 73 574 1.77250000E+02 8.75000000E+04
  1 73 575 1.77250000E+02 8.75000000E+04
  1 73 576 1.79445602E+02 8.75000000E+04
  1 73 577 1.85507950E+02 8.75000000E+04
  1 73 631 2.06665146E+02 8.75000000E+04
  1 73 632 2.30768982E+02 8.75000000E+04
  1 74 292 1.75149002E+02 8.75000000E+04
  1 74 293 1.75149002E+02 8.75000000E+04
  1 74 554 1.77247879E+02 8.75000000E+04
  1 74 555 1.77248749E+02 8.75000000E+04
  1 74 556 1.77250000E+02 8.75000000E+04
  1 74 557 1.77247208E+02 8.75000000E+04
  1 74 558 1.96541214E+02 8.75000000E+04
  1 74 572 1.79324615E+02 8.75000000E+04
  1 74 573 1.77990555E+02 8.75000000E+04
  1 74 574 1.77250000E+02 8.75000000E+04
  1 74 575 1.77250000E+02 8.75000000E+04
  1 74 576 1.77250000E+02 8.75000000E+04
  1 74 577 1.77457291E+02 8.75000000E+04
  1 74 578 1.78786224E+02 8.75000000E+04
  1 74 579 1.80337112E+02 8.75000000E+04
  1 74 631 2.06420593E+02 8.75000000E+04
  1 75 293 1.75149002E+02 8.75000000E+04
  1 75 439 1.54149429E+02 8.75000000E+04
  1 75 554 1.77250000E+02 8.75000000E+04
  1 75 555 1.77250000E+02 8.75000000E+04
  1 75 556 1.77250000E+02 8.75000000E+04
  1 75 557 1.78805908E+02 8.75000000E+04
  1 75 558 2.29365265E+02 8.75000000E+04
  1 75 576 1.77250000E+02 8.75000000E+04
  1 75 577 1.77250000E+02 8.75000000E+04
  1 75 578 1.77250000E+02 8.75000000E+04
  1 75 579 1.83518875E+02 8.75000000E+04
  1 76 293 1.75149002E+02 8.75000000E+04
  1 76 553 1.77250000E+02 8.75000000E+04
  1 76 554 1.77250000E+02 8.75000000E+04
  1 76 555 1.77250000E+02 8.75000000E+04
  1 76 556 1.77250000E+02 8.75000000E+04
  1 76 557 1.85668396E+02 8.75000000E+04
  1 76 576 1.77250000E+02 8.75000000E+04
  1 76 577 1.77250000E+02 8.75000000E+04
  1 76 578 1.77250000E+02 8.75000000E+04
  1 76 579 1.83773605E+02 8.75000000E+04
  1 77 293 1.75149002E+02 8.75000000E+04
  1 77 294 1.75149002E+02 8.75000000E+04
  1 77 551 1.78531387E+02 8.75000000E+04
  1 77 552 1.77250000E+02 8.75000000E+04
  1 77 553 1.77250000E+02 8.75000000E+04
  1 77 554 1.77250000E+02 8.75000000E+04
  1 77 555 1.77250000E+02 8.75000000E+04
  1 77 556 1.77312363E+02 8.75000000E+04
  1 77 557 1.85701645E+02 8.75000000E+04
  1 77 576 1.77342896E+02 8.75000000E+04
  1 77 577 1.77250000E+02 8.75000000E+04
  1 77 578 1.77250000E+02 8.75000000E+04
  1 77 579 1.80620224E+02 8.75000000E+04
  1 77 580 2.12592499E+02 8.75000000E+04
  1 77 673 1.30672638E+02 8.75000000E+04
  1 77 674 1.28722427E+02 8.75000000E+04
  1 77 675 1.28303421E+02 8.75000000E+04
  1 78 294 1.75149002E+02 8.75000000E+04
  1 78 551 1.77243271E+02 8.75000000E+04
  1 78 552 1.77250015E+02 8.75000000E+04
  1 78 553 1.77250000E+02 8.75000000E+04
  1 78 554 1.77250000E+02 8.75000000E+04
  1 78 555 1.77250000E+02 8.75000000E+04
  1 78 556 1.79551407E+02 8.75000000E+04
  1 78 577 1.77570633E+02 8.75000000E+04
  1 78 578 1.77493271E+02 8.75000000E+04
  1 78 676 1.29880646E+02 8.75000000E+04
  1 78 677 1.29845001E+02 8.75000000E+04
  1 78 678 1.29824493E+02 8.75000000E+04
  1 79 293 1.76474442E+02 8.75000000E+04
  1 79 294 1.75149002E+02 8.75000000E+04
  1 79 547 1.80657288E+02 8.75000000E+04
  1 79 548 1.79825409E+02 8.75000000E+04
  1 79 549 1.77821609E+02 8.75000000E+04
  1 79 550 1.77249420E+02 8.75000000E+04
  1 79 551 1.77251419E+02 8.75000000E+04
  1 79 552 1.77250397E+02 8.75000000E+04
  1 79 553 1.77250000E+02 8.75000000E+04
  1 79 554 1.77250000E+02 8.75000000E+04
  1 79 555 1.79510544E+02 8.75000000E+04
  1 79 679 1.29977921E+02 8.75000000E+04
  1 79 680 1.28360733E+02 8.75000000E+04
  1 79 681 1.28122482E+02 8.75000000E+04
  1 80 294 1.75149002E+02 8.75000000E+04
  1 80 547 1.77657181E+02 8.75000000E+04
  1 80 548 1.77401031E+02 8.75000000E+04
  1 80 549 1.77267883E+02 8.75000000E+04
  1 80 550 1.77248978E+02 8.75000000E+04
  1 80 551 1.77247192E+02 8.75000000E+04
  1 80 552 1.77267014E+02 8.75000000E+04
  1 80 553 1.77417694E+02 8.75000000E+04
  1 80 554 1.87256241E+02 8.75000000E+04
  1 80 555 2.08301498E+02 8.75000000E+04
  1 80 682 1.32452850E+02 8.75000000E+04
  1 80 683 1.33046692E+02 8.75000000E+04
  1 80 684 1.38726303E+02 8.75000000E+04
  1 81 294 1.75149002E+02 8.75000000E+04
  1 81 295 1.75149002E+02 8.75000000E+04
  1 81 482 2.37428314E+02 8.75000000E+04
  1 81 483 2.38755478E+02 8.75000000E+04
  1 81 546 1.77438736E+02 8.75000000E+04
  1 81 547 1.77256989E+02 8.75000000E+04
  1 81 548 1.77257431E+02 8.75000000E+04
  1 81 549 1.77252945E+02 8.75000000E+04
  1 81 550 1.77326752E+02 8.75000000E+04
  1 81 551 1.77857864E+02 8.75000000E+04
  1 81 552 1.78109131E+02 8.75000000E+04
  1 81 553 1.86537506E+02 8.75000000E+04
  1 82 295 1.75149002E+02 8.75000000E+04
  1 82 433 1.58869553E+02 6.25000000E+04
  1 82 447 1.65184845E+02 8.75000000E+04
  1 82 546 1.77256989E+02 8.75000000E+04
  1 82 547 1.77256989E+02 8.75000000E+04
  1 82 548 1.78826614E+02 8.75000000E+04
  1 82 549 1.80515121E+02 8.75000000E+04
  1 82 550 1.81895111E+02 8.75000000E+04
  1 82 691 1.42124496E+02 8.75000000E+04
  1 83 432 1.62665329E+02 6.25000000E+04
  1 83 433 1.74044006E+02 6.25000000E+04
  1 83 546 1.77345261E+02 8.75000000E+04
  1 83 547 1.77574966E+02 8.75000000E+04
  1 83 548 1.83624695E+02 8.75000000E+04
  1 83 695 1.42594330E+02 8.75000000E+04
  1 83 696 1.36833130E+02 8.75000000E+04
  1 83 697 1.31971207E+02 8.75000000E+04
  1 84 295 1.75151230E+02 8.75000000E+04
  1 84 428 1.58700272E+02 6.25000000E+04
  1 84 548 1.92471909E+02 8.75000000E+04
  1 85 296 1.75149002E+02 8.75000000E+04
  1 85 427 1.59541016E+02 6.25000000E+04
  1 86 296 1.75149002E+02 8.75000000E+04
  1 86 426 1.66458328E+02 6.25000000E+04
  1 86 544 1.76957001E+02 8.75000000E+04
  1 86 545 1.77075912E+02 8.75000000E+04
  1 87 296 1.75149002E+02 8.75000000E+04
  1 87 413 1.56911621E+02 6.25000000E+04
  1 87 542 1.77250931E+02 8.75000000E+04
  1 87 543 1.76993393E+02 8.75000000E+04
  1 87 544 1.76957001E+02 8.75000000E+04
  1 87 545 1.76957001E+02 8.75000000E+04
  1 87 546 1.77328659E+02 8.75000000E+04
  1 88 412 1.54436798E+02 6.25000000E+04
  1 88 413 1.58952103E+02 6.25000000E+04
  1 88 541 1.77287384E+02 8.75000000E+04
  1 88 542 1.77156998E+02 8.75000000E+04
  1 88 543 1.77022461E+02 8.75000000E+04
  1 88 544 1.76957153E+02 8.75000000E+04
  1 88 545 1.76957001E+02 8.75000000E+04
  1 88 546 1.76957001E+02 8.75000000E+04
  1 88 547 1.82894043E+02 8.75000000E+04
  1 89 297 1.75149002E+02 8.75000000E+04
  1 89 539 1.78480225E+02 8.75000000E+04
  1 89 540 1.77415070E+02 8.75000000E+04
  1 89 541 1.77306610E+02 8.75000000E+04
  1 89 542 1.77178268E+02 8.75000000E+04
  1 89 543 1.77046600E+02 8.75000000E+04
  1 89 544 1.76960175E+02 8.75000000E+04
  1 89 545 1.76957001E+02 8.75000000E+04
  1 89 546 1.76957001E+02 8.75000000E+04
  1 89 547 1.78423141E+02 8.75000000E+04
  1 90 298 1.75149002E+02 8.75000000E+04
  1 90 411 1.61337540E+02 6.25000000E+04
  1 90 482 2.44706604E+02 8.75000000E+04
  1 90 536 1.84106506E+02 8.75000000E+04
  1 90 537 1.81538528E+02 8.75000000E+04
  1 90 538 1.78659348E+02 8.75000000E+04
  1 90 539 1.77414047E+02 8.75000000E+04
  1 90 540 1.77390121E+02 8.75000000E+04
  1 90 541 1.77348343E+02 8.75000000E+04
  1 90 542 1.77271896E+02 8.75000000E+04
  1 90 543 1.77028229E+02 8.75000000E+04
  1 90 544 1.77170532E+02 8.75000000E+04
  1 91 299 1.75149002E+02 8.75000000E+04
  1 91 406 1.56843002E+02 6.25000000E+04
  1 91 536 1.78881744E+02 8.75000000E+04
  1 91 537 1.77884247E+02 8.75000000E+04
  1 91 538 1.77389999E+02 8.75000000E+04
  1 91 539 1.77389999E+02 8.75000000E+04
  1 91 540 1.77389999E+02 8.75000000E+04
  1 91 541 1.77373093E+02 8.75000000E+04
  1 91 542 1.77336990E+02 8.75000000E+04
  1 91 543 1.80269775E+02 8.75000000E+04
  1 92 536 1.77389999E+02 8.75000000E+04
  1 92 537 1.77389999E+02 8.75000000E+04
  1 92 538 1.77389999E+02 8.75000000E+04
  1 92 539 1.77389999E+02 8.75000000E+04
  1 92 540 1.77389999E+02 8.75000000E+04
  1 92 541 1.77417007E+02 8.75000000E+04
  1 92 542 1.80896912E+02 8.75000000E+04
  1 93 536 1.77389999E+02 8.75000000E+04
  1 93 537 1.77389999E+02 8.75000000E+04
  1 93 538 1.77389999E+02 8.75000000E+04
  1 93 539 1.77389999E+02 8.75000000E+04
  1 93 540 1.77627441E+02 8.75000000E+04
  1 93 541 1.81286942E+02 8.75000000E+04
  1 94 536 1.77389999E+02 8.75000000E+04
  1 94 537 1.77389999E+02 8.75000000E+04
  1 94 538 1.77389999E+02 8.75000000E+04
  1 94 539 1.78039383E+02 8.75000000E+04
  1 95 401 1.56069122E+02 6.25000000E+04
  1 95 536 1.77389999E+02 8.75000000E+04
  1 95 537 1.77846603E+02 8.75000000E+04
  1 96 536 1.77947815E+02 8.75000000E+04
  1 98 399 1.56884109E+02 6.25000000E+04
  1 99 398 1.56753357E+02 6.25000000E+04