# File generated by Flopy version 3.10.0.dev1 on 11/18/2025 at 19:24:45.
BEGIN OPTIONS
  SAVE_FLOWS
END OPTIONS

BEGIN DIMENSIONS
  MAXBOUND  2753
END DIMENSIONS

BEGIN PERIOD  1
  1 833 1120 0.00000000E+00
  1 833 1121 0.00000000E+00
  1 833 1128 0.00000000E+00
  1 833 1129 0.00000000E+00
  1 833 1130 0.00000000E+00
  1 833 1131 0.00000000E+00
  1 833 1132 0.00000000E+00
  1 833 1133 0.00000000E+00
  1 833 1134 0.00000000E+00
  1 833 1135 0.00000000E+00
  1 834 1122 0.00000000E+00
  1 834 1123 0.00000000E+00
  1 834 1124 0.00000000E+00
  1 834 1125 0.00000000E+00
  1 834 1126 0.00000000E+00
  1 834 1127 0.00000000E+00
  1 834 1136 0.00000000E+00
  1 835 1137 0.00000000E+00
  1 836 1138 0.00000000E+00
  1 836 1139 0.00000000E+00
  1 837 1140 0.00000000E+00
  1 838 1141 0.00000000E+00
  1 839 1142 0.00000000E+00
  1 840 1143 0.00000000E+00
  1 841 1144 0.00000000E+00
  1 841 1145 0.00000000E+00
  1 842 1146 0.00000000E+00
  1 843 1147 0.00000000E+00
  1 844 1148 0.00000000E+00
  1 845 1149 0.00000000E+00
  1 846 1150 0.00000000E+00
  1 847 1151 0.00000000E+00
  1 847 1152 0.00000000E+00
  1 848 1153 0.00000000E+00
  1 849 1154 0.00000000E+00
  1 850 1155 0.00000000E+00
  1 851 1156 0.00000000E+00
  1 852 1156 0.00000000E+00
  1 853 1157 0.00000000E+00
  1 854 1158 0.00000000E+00
  1 855 1159 0.00000000E+00
  1 856 1159 0.00000000E+00
  1 857 1160 0.00000000E+00
  1 858 1161 0.00000000E+00
  1 859 1161 0.00000000E+00
  1 860 1162 0.00000000E+00
  1 861 1163 0.00000000E+00
  1 862 1164 0.00000000E+00
  1 863 1164 0.00000000E+00
  1 864 1165 0.00000000E+00
  1 865 1166 0.00000000E+00
  1 866 1167 0.00000000E+00
  1 867 1166 0.00000000E+00
  1 868 1164 0.00000000E+00
  1 868 1165 0.00000000E+00
  1 869 1163 0.00000000E+00
  1 870 1163 0.00000000E+00
  1 871 1162 0.00000000E+00
  1 872 1162 0.00000000E+00
  1 873 1161 0.00000000E+00
  1 874 1161 0.00000000E+00
  1 874 1162 0.00000000E+00
  1 875 1163 0.00000000E+00
  1 875 1164 0.00000000E+00
  1 876 1165 0.00000000E+00
  1 876 1166 0.00000000E+00
  1 877 1167 0.00000000E+00
  1 877 1168 0.00000000E+00
  1 878 1169 0.00000000E+00
  1 878 1170 0.00000000E+00
  1 879 1171 0.00000000E+00
  1 880 1172 0.00000000E+00
  1 881 1173 0.00000000E+00
  1 881 1174 0.00000000E+00
  1 882 1175 0.00000000E+00
  1 883 1176 0.00000000E+00
  1 884 1177 0.00000000E+00
  1 885 1178 0.00000000E+00
  1 886 1179 0.00000000E+00
  1 887 1180 0.00000000E+00
  1 888 1180 0.00000000E+00
  1 889 1181 0.00000000E+00
  1 890 1181 0.00000000E+00
  1 891 1182 0.00000000E+00
  1 892 1182 0.00000000E+00
  1 893 1183 0.00000000E+00
  1 894 1184 0.00000000E+00
  1 895 1185 0.00000000E+00
  1 896 1186 0.00000000E+00
  1 896 1187 0.00000000E+00
  1 897 1188 0.00000000E+00
  1 898 1189 0.00000000E+00
  1 899 1190 0.00000000E+00
  1 900 1190 0.00000000E+00
  1 901 1191 0.00000000E+00
  1 902 1192 0.00000000E+00
  1 903 1192 0.00000000E+00
  1 904 1193 0.00000000E+00
  1 905 1194 0.00000000E+00
  1 906 1195 0.00000000E+00
  1 907 1195 0.00000000E+00
  1 908 1196 0.00000000E+00
  1 909 1197 0.00000000E+00
  1 910 1197 0.00000000E+00
  1 911 1198 0.00000000E+00
  1 912 1199 0.00000000E+00
  1 913 1199 0.00000000E+00
  1 914 1200 0.00000000E+00
  1 915 1201 0.00000000E+00
  1 916 1202 0.00000000E+00
  1 917 1203 0.00000000E+00
  1 917 1204 0.00000000E+00
  1 918 1205 0.00000000E+00
  1 918 1206 0.00000000E+00
  1 919 1207 0.00000000E+00
  1 919 1208 0.00000000E+00
  1 920 1209 0.00000000E+00
  1 920 1210 0.00000000E+00
  1 921 1211 0.00000000E+00
  1 921 1212 0.00000000E+00
  1 921 1216 0.00000000E+00
  1 921 1217 0.00000000E+00
  1 922 1213 0.00000000E+00
  1 922 1214 0.00000000E+00
  1 922 1215 0.00000000E+00
  1 922 1218 0.00000000E+00
  1 922 1219 0.00000000E+00
  1 923 1220 0.00000000E+00
  1 924 1221 0.00000000E+00
  1 925 1221 0.00000000E+00
  1 926 1222 0.00000000E+00
  1 927 1222 0.00000000E+00
  1 928 1222 0.00000000E+00
  1 929 1222 0.00000000E+00
  1 930 1221 0.00000000E+00
  1 931 1221 0.00000000E+00
  1 932 1221 0.00000000E+00
  1 933 1222 0.00000000E+00
  1 934 1222 0.00000000E+00
  1 935 1222 0.00000000E+00
  1 936 1222 0.00000000E+00
  1 937 1223 0.00000000E+00
  1 938 1224 0.00000000E+00
  1 939 1225 0.00000000E+00
  1 940 1225 0.00000000E+00
  1 941 1226 0.00000000E+00
  1 942 1227 0.00000000E+00
  1 943 1228 0.00000000E+00
  1 944 1228 0.00000000E+00
  1 945 1229 0.00000000E+00
  1 946 1229 0.00000000E+00
  1 947 1228 0.00000000E+00
  1 948 1227 0.00000000E+00
  1 949 1227 0.00000000E+00
  1 950 1226 0.00000000E+00
  1 951 1226 0.00000000E+00
  1 952 1226 0.00000000E+00
  1 953 1227 0.00000000E+00
  1 954 1227 0.00000000E+00
  1 955 1228 0.00000000E+00
  1 956 1228 0.00000000E+00
  1 957 1229 0.00000000E+00
  1 958 1230 0.00000000E+00
  1 959 1230 0.00000000E+00
  1 959 1241 0.00000000E+00
  1 959 1242 0.00000000E+00
  1 960 1231 0.00000000E+00
  1 960 1239 0.00000000E+00
  1 960 1240 0.00000000E+00
  1 960 1243 0.00000000E+00
  1 961 1231 0.00000000E+00
  1 961 1238 0.00000000E+00
  1 961 1243 0.00000000E+00
  1 962 1232 0.00000000E+00
  1 962 1237 0.00000000E+00
  1 962 1242 0.00000000E+00
  1 963 1233 0.00000000E+00
  1 963 1236 0.00000000E+00
  1 963 1242 0.00000000E+00
  1 964 1233 0.00000000E+00
  1 964 1235 0.00000000E+00
  1 964 1236 0.00000000E+00
  1 964 1241 0.00000000E+00
  1 965 1234 0.00000000E+00
  1 965 1241 0.00000000E+00
  1 966 1240 0.00000000E+00
  1 967 1238 0.00000000E+00
  1 967 1239 0.00000000E+00
  1 968 1236 0.00000000E+00
  1 968 1237 0.00000000E+00
  1 969 1235 0.00000000E+00
  1 970 1234 0.00000000E+00
  1 971 1234 0.00000000E+00
  1 972 1234 0.00000000E+00
  1 973 1233 0.00000000E+00
  1 974 1233 0.00000000E+00
  1 975 1233 0.00000000E+00
  1 976 1233 0.00000000E+00
  1 977 1232 0.00000000E+00
  1 978 1232 0.00000000E+00
  1 979 1231 0.00000000E+00
  1 980 1231 0.00000000E+00
  1 981 1230 0.00000000E+00
  1 982 1230 0.00000000E+00
  1 983 1229 0.00000000E+00
  1 984 1229 0.00000000E+00
  1 985 1228 0.00000000E+00
  1 986 1228 0.00000000E+00
  1 987 1227 0.00000000E+00
  1 988 1227 0.00000000E+00
  1 989 1218 0.00000000E+00
  1 989 1219 0.00000000E+00
  1 989 1225 0.00000000E+00
  1 989 1226 0.00000000E+00
  1 990 1217 0.00000000E+00
  1 990 1220 0.00000000E+00
  1 990 1221 0.00000000E+00
  1 990 1223 0.00000000E+00
  1 990 1224 0.00000000E+00
  1 991 1216 0.00000000E+00
  1 991 1222 0.00000000E+00
  1 992 1216 0.00000000E+00
  1 993 1216 0.00000000E+00
  1 994 1217 0.00000000E+00
  1 995 1217 0.00000000E+00
  1 996 1217 0.00000000E+00
  1 997 1217 0.00000000E+00
  1 998 1217 0.00000000E+00
  1 999 1217 0.00000000E+00
  1 1000 1216 0.00000000E+00
  1 1001 1216 0.00000000E+00
  1 1002 1216 0.00000000E+00
  1 1003 1216 0.00000000E+00
  1 1004 1214 0.00000000E+00
  1 1004 1215 0.00000000E+00
  1 1005 1210 0.00000000E+00
  1 1005 1211 0.00000000E+00
  1 1005 1212 0.00000000E+00
  1 1005 1213 0.00000000E+00
  1 1006 1209 0.00000000E+00
  1 1007 1209 0.00000000E+00
  1 1008 1209 0.00000000E+00
  1 1009 1209 0.00000000E+00
  1 1010 1209 0.00000000E+00
  1 1011 1209 0.00000000E+00
  1 1012 1210 0.00000000E+00
  1 1013 1210 0.00000000E+00
  1 1014 1210 0.00000000E+00
  1 1015 1210 0.00000000E+00
  1 1016 1210 0.00000000E+00
  1 1017 1210 0.00000000E+00
  1 1018 1210 0.00000000E+00
  1 1019 1209 0.00000000E+00
  1 1020 1209 0.00000000E+00
  1 1021 1209 0.00000000E+00
  1 1022 1208 0.00000000E+00
  1 1023 1208 0.00000000E+00
  1 1024 1207 0.00000000E+00
  1 1025 1207 0.00000000E+00
  1 1026 1207 0.00000000E+00
  1 1027 1206 0.00000000E+00
  1 1028 1206 0.00000000E+00
  1 1029 1204 0.00000000E+00
  1 1029 1205 0.00000000E+00
  1 1030 1203 0.00000000E+00
  1 1031 1203 0.00000000E+00
  1 1032 1202 0.00000000E+00
  1 1033 1202 0.00000000E+00
  1 1034 1201 0.00000000E+00
  1 1035 1201 0.00000000E+00
  1 1036 1201 0.00000000E+00
  1 1037 1201 0.00000000E+00
  1 1038 1201 0.00000000E+00
  1 1039 1201 0.00000000E+00
  1 1040 1150 0.00000000E+00
  1 1040 1151 0.00000000E+00
  1 1040 1152 0.00000000E+00
  1 1040 1153 0.00000000E+00
  1 1040 1201 0.00000000E+00
  1 1041 1148 0.00000000E+00
  1 1041 1149 0.00000000E+00
  1 1041 1153 0.00000000E+00
  1 1041 1201 0.00000000E+00
  1 1042 1147 0.00000000E+00
  1 1042 1153 0.00000000E+00
  1 1042 1201 0.00000000E+00
  1 1042 1202 0.00000000E+00
  1 1043 1145 0.00000000E+00
  1 1043 1146 0.00000000E+00
  1 1043 1154 0.00000000E+00
  1 1043 1201 0.00000000E+00
  1 1044 1143 0.00000000E+00
  1 1044 1144 0.00000000E+00
  1 1044 1154 0.00000000E+00
  1 1044 1200 0.00000000E+00
  1 1045 1142 0.00000000E+00
  1 1045 1153 0.00000000E+00
  1 1045 1199 0.00000000E+00
  1 1046 1140 0.00000000E+00
  1 1046 1141 0.00000000E+00
  1 1046 1153 0.00000000E+00
  1 1046 1197 0.00000000E+00
  1 1046 1198 0.00000000E+00
  1 1047 1139 0.00000000E+00
  1 1047 1152 0.00000000E+00
  1 1047 1194 0.00000000E+00
  1 1047 1195 0.00000000E+00
  1 1047 1196 0.00000000E+00
  1 1048 1137 0.00000000E+00
  1 1048 1138 0.00000000E+00
  1 1048 1152 0.00000000E+00
  1 1048 1193 0.00000000E+00
  1 1049 1136 0.00000000E+00
  1 1049 1153 0.00000000E+00
  1 1049 1193 0.00000000E+00
  1 1050 1135 0.00000000E+00
  1 1050 1153 0.00000000E+00
  1 1050 1192 0.00000000E+00
  1 1051 1134 0.00000000E+00
  1 1051 1153 0.00000000E+00
  1 1051 1192 0.00000000E+00
  1 1052 1133 0.00000000E+00
  1 1052 1153 0.00000000E+00
  1 1052 1192 0.00000000E+00
  1 1053 1131 0.00000000E+00
  1 1053 1132 0.00000000E+00
  1 1053 1154 0.00000000E+00
  1 1053 1193 0.00000000E+00
  1 1054 1127 0.00000000E+00
  1 1054 1128 0.00000000E+00
  1 1054 1129 0.00000000E+00
  1 1054 1130 0.00000000E+00
  1 1054 1154 0.00000000E+00
  1 1054 1193 0.00000000E+00
  1 1055 1125 0.00000000E+00
  1 1055 1126 0.00000000E+00
  1 1055 1154 0.00000000E+00
  1 1055 1193 0.00000000E+00
  1 1055 1194 0.00000000E+00
  1 1056 1125 0.00000000E+00
  1 1056 1155 0.00000000E+00
  1 1056 1193 0.00000000E+00
  1 1057 1125 0.00000000E+00
  1 1057 1155 0.00000000E+00
  1 1057 1192 0.00000000E+00
  1 1058 1124 0.00000000E+00
  1 1058 1155 0.00000000E+00
  1 1058 1190 0.00000000E+00
  1 1058 1191 0.00000000E+00
  1 1059 1124 0.00000000E+00
  1 1059 1155 0.00000000E+00
  1 1059 1189 0.00000000E+00
  1 1060 1124 0.00000000E+00
  1 1060 1125 0.00000000E+00
  1 1060 1156 0.00000000E+00
  1 1060 1188 0.00000000E+00
  1 1061 1126 0.00000000E+00
  1 1061 1127 0.00000000E+00
  1 1061 1128 0.00000000E+00
  1 1061 1156 0.00000000E+00
  1 1061 1157 0.00000000E+00
  1 1061 1158 0.00000000E+00
  1 1061 1186 0.00000000E+00
  1 1061 1187 0.00000000E+00
  1 1062 1129 0.00000000E+00
  1 1062 1130 0.00000000E+00
  1 1062 1131 0.00000000E+00
  1 1062 1159 0.00000000E+00
  1 1062 1160 0.00000000E+00
  1 1062 1184 0.00000000E+00
  1 1062 1185 0.00000000E+00
  1 1063 1132 0.00000000E+00
  1 1063 1133 0.00000000E+00
  1 1063 1161 0.00000000E+00
  1 1063 1182 0.00000000E+00
  1 1063 1183 0.00000000E+00
  1 1064 1134 0.00000000E+00
  1 1064 1162 0.00000000E+00
  1 1064 1181 0.00000000E+00
  1 1065 1134 0.00000000E+00
  1 1065 1135 0.00000000E+00
  1 1065 1136 0.00000000E+00
  1 1065 1162 0.00000000E+00
  1 1065 1181 0.00000000E+00
  1 1066 1137 0.00000000E+00
  1 1066 1163 0.00000000E+00
  1 1066 1180 0.00000000E+00
  1 1067 1138 0.00000000E+00
  1 1067 1163 0.00000000E+00
  1 1067 1180 0.00000000E+00
  1 1068 1138 0.00000000E+00
  1 1068 1163 0.00000000E+00
  1 1068 1179 0.00000000E+00
  1 1069 1139 0.00000000E+00
  1 1069 1164 0.00000000E+00
  1 1069 1179 0.00000000E+00
  1 1070 1139 0.00000000E+00
  1 1070 1164 0.00000000E+00
  1 1070 1177 0.00000000E+00
  1 1070 1178 0.00000000E+00
  1 1071 1140 0.00000000E+00
  1 1071 1164 0.00000000E+00
  1 1071 1175 0.00000000E+00
  1 1071 1176 0.00000000E+00
  1 1072 1140 0.00000000E+00
  1 1072 1164 0.00000000E+00
  1 1072 1173 0.00000000E+00
  1 1072 1174 0.00000000E+00
  1 1073 1141 0.00000000E+00
  1 1073 1163 0.00000000E+00
  1 1073 1171 0.00000000E+00
  1 1073 1172 0.00000000E+00
  1 1074 1141 0.00000000E+00
  1 1074 1163 0.00000000E+00
  1 1074 1172 0.00000000E+00
  1 1075 1142 0.00000000E+00
  1 1075 1163 0.00000000E+00
  1 1075 1173 0.00000000E+00
  1 1076 1142 0.00000000E+00
  1 1076 1163 0.00000000E+00
  1 1076 1174 0.00000000E+00
  1 1077 1143 0.00000000E+00
  1 1077 1163 0.00000000E+00
  1 1077 1175 0.00000000E+00
  1 1078 1143 0.00000000E+00
  1 1078 1163 0.00000000E+00
  1 1078 1176 0.00000000E+00
  1 1079 1143 0.00000000E+00
  1 1079 1162 0.00000000E+00
  1 1079 1177 0.00000000E+00
  1 1080 1143 0.00000000E+00
  1 1080 1162 0.00000000E+00
  1 1081 1143 0.00000000E+00
  1 1081 1160 0.00000000E+00
  1 1081 1161 0.00000000E+00
  1 1081 1162 0.00000000E+00
  1 1081 1176 0.00000000E+00
  1 1081 1177 0.00000000E+00
  1 1082 1136 0.00000000E+00
  1 1082 1137 0.00000000E+00
  1 1082 1138 0.00000000E+00
  1 1082 1142 0.00000000E+00
  1 1082 1158 0.00000000E+00
  1 1082 1159 0.00000000E+00
  1 1082 1174 0.00000000E+00
  1 1082 1175 0.00000000E+00
  1 1083 1136 0.00000000E+00
  1 1083 1139 0.00000000E+00
  1 1083 1140 0.00000000E+00
  1 1083 1142 0.00000000E+00
  1 1083 1158 0.00000000E+00
  1 1083 1172 0.00000000E+00
  1 1083 1173 0.00000000E+00
  1 1084 1136 0.00000000E+00
  1 1084 1141 0.00000000E+00
  1 1084 1159 0.00000000E+00
  1 1084 1170 0.00000000E+00
  1 1084 1171 0.00000000E+00
  1 1085 1136 0.00000000E+00
  1 1085 1160 0.00000000E+00
  1 1085 1169 0.00000000E+00
  1 1086 1136 0.00000000E+00
  1 1086 1161 0.00000000E+00
  1 1086 1167 0.00000000E+00
  1 1086 1168 0.00000000E+00
  1 1087 1136 0.00000000E+00
  1 1087 1162 0.00000000E+00
  1 1087 1163 0.00000000E+00
  1 1087 1164 0.00000000E+00
  1 1087 1165 0.00000000E+00
  1 1087 1166 0.00000000E+00
  1 1088 1136 0.00000000E+00
  1 1089 1136 0.00000000E+00
  1 1090 1136 0.00000000E+00
  1 1091 1136 0.00000000E+00
  1 1092 1136 0.00000000E+00
  1 1093 1127 0.00000000E+00
  1 1093 1128 0.00000000E+00
  1 1093 1129 0.00000000E+00
  1 1093 1136 0.00000000E+00
  1 1094 1125 0.00000000E+00
  1 1094 1126 0.00000000E+00
  1 1094 1129 0.00000000E+00
  1 1094 1136 0.00000000E+00
  1 1095 1123 0.00000000E+00
  1 1095 1124 0.00000000E+00
  1 1095 1130 0.00000000E+00
  1 1095 1136 0.00000000E+00
  1 1096 1122 0.00000000E+00
  1 1096 1131 0.00000000E+00
  1 1096 1132 0.00000000E+00
  1 1096 1135 0.00000000E+00
  1 1097 1122 0.00000000E+00
  1 1097 1133 0.00000000E+00
  1 1097 1134 0.00000000E+00
  1 1097 1135 0.00000000E+00
  1 1098 1122 0.00000000E+00
  1 1098 1135 0.00000000E+00
  1 1099 1122 0.00000000E+00
  1 1100 1120 0.00000000E+00
  1 1100 1121 0.00000000E+00
  1 1101 1119 0.00000000E+00
  1 1102 1118 0.00000000E+00
  1 1103 1118 0.00000000E+00
  1 1104 1117 0.00000000E+00
  1 1105 1117 0.00000000E+00
  1 1106 1116 0.00000000E+00
  1 1107 1116 0.00000000E+00
  1 1108 1115 0.00000000E+00
  1 1109 1115 0.00000000E+00
  1 1110 1114 0.00000000E+00
  1 1111 1114 0.00000000E+00
  1 1112 1113 0.00000000E+00
  1 1113 1113 0.00000000E+00
  1 1114 1112 0.00000000E+00
  1 1115 1112 0.00000000E+00
  1 1116 1113 0.00000000E+00
  1 1117 1113 0.00000000E+00
  1 1118 1113 0.00000000E+00
  1 1119 1113 0.00000000E+00
  1 1120 1098 0.00000000E+00
  1 1120 1114 0.00000000E+00
  1 1121 1097 0.00000000E+00
  1 1121 1099 0.00000000E+00
  1 1121 1100 0.00000000E+00
  1 1121 1114 0.00000000E+00
  1 1122 1096 0.00000000E+00
  1 1122 1101 0.00000000E+00
  1 1122 1102 0.00000000E+00
  1 1122 1113 0.00000000E+00
  1 1122 1114 0.00000000E+00
  1 1123 1095 0.00000000E+00
  1 1123 1103 0.00000000E+00
  1 1123 1104 0.00000000E+00
  1 1123 1111 0.00000000E+00
  1 1123 1112 0.00000000E+00
  1 1124 1093 0.00000000E+00
  1 1124 1094 0.00000000E+00
  1 1124 1105 0.00000000E+00
  1 1124 1106 0.00000000E+00
  1 1124 1109 0.00000000E+00
  1 1124 1110 0.00000000E+00
  1 1125 1092 0.00000000E+00
  1 1125 1107 0.00000000E+00
  1 1125 1108 0.00000000E+00
  1 1126 1091 0.00000000E+00
  1 1127 1090 0.00000000E+00
  1 1128 1089 0.00000000E+00
  1 1129 1090 0.00000000E+00
  1 1129 1091 0.00000000E+00
  1 1130 1092 0.00000000E+00
  1 1131 1092 0.00000000E+00
  1 1132 1093 0.00000000E+00
  1 1133 1093 0.00000000E+00
  1 1134 1094 0.00000000E+00
  1 1135 1094 0.00000000E+00
  1 1136 1095 0.00000000E+00
  1 1137 1095 0.00000000E+00
  1 1138 1094 0.00000000E+00
  1 1139 1094 0.00000000E+00
  1 1140 1094 0.00000000E+00
  1 1140 1095 0.00000000E+00
  1 1140 1096 0.00000000E+00
  1 1141 1097 0.00000000E+00
  1 1141 1098 0.00000000E+00
  1 1141 1099 0.00000000E+00
  1 1141 1100 0.00000000E+00
  1 1142 1101 0.00000000E+00
  1 1142 1102 0.00000000E+00
  1 1142 1103 0.00000000E+00
  1 1142 1104 0.00000000E+00
  1 1142 1105 0.00000000E+00
  1 1143 1106 0.00000000E+00
  1 1143 1107 0.00000000E+00
  1 1143 1108 0.00000000E+00
  1 1143 1109 0.00000000E+00
  1 1144 1110 0.00000000E+00
  1 1144 1111 0.00000000E+00
  1 1144 1112 0.00000000E+00
  1 1145 1113 0.00000000E+00
  1 1146 1065 0.00000000E+00
  1 1146 1066 0.00000000E+00
  1 1146 1067 0.00000000E+00
  1 1146 1114 0.00000000E+00
  1 1147 1061 0.00000000E+00
  1 1147 1062 0.00000000E+00
  1 1147 1063 0.00000000E+00
  1 1147 1064 0.00000000E+00
  1 1147 1067 0.00000000E+00
  1 1147 1115 0.00000000E+00
  1 1148 1058 0.00000000E+00
  1 1148 1059 0.00000000E+00
  1 1148 1060 0.00000000E+00
  1 1148 1068 0.00000000E+00
  1 1148 1116 0.00000000E+00
  1 1149 1056 0.00000000E+00
  1 1149 1057 0.00000000E+00
  1 1149 1068 0.00000000E+00
  1 1149 1117 0.00000000E+00
  1 1150 1055 0.00000000E+00
  1 1150 1069 0.00000000E+00
  1 1150 1117 0.00000000E+00
  1 1151 1032 0.00000000E+00
  1 1151 1033 0.00000000E+00
  1 1151 1034 0.00000000E+00
  1 1151 1035 0.00000000E+00
  1 1151 1036 0.00000000E+00
  1 1151 1055 0.00000000E+00
  1 1151 1069 0.00000000E+00
  1 1151 1116 0.00000000E+00
  1 1152 1031 0.00000000E+00
  1 1152 1037 0.00000000E+00
  1 1152 1054 0.00000000E+00
  1 1152 1070 0.00000000E+00
  1 1152 1116 0.00000000E+00
  1 1153 1031 0.00000000E+00
  1 1153 1038 0.00000000E+00
  1 1153 1054 0.00000000E+00
  1 1153 1070 0.00000000E+00
  1 1153 1116 0.00000000E+00
  1 1154 1030 0.00000000E+00
  1 1154 1039 0.00000000E+00
  1 1154 1054 0.00000000E+00
  1 1154 1071 0.00000000E+00
  1 1154 1115 0.00000000E+00
  1 1155 1030 0.00000000E+00
  1 1155 1039 0.00000000E+00
  1 1155 1055 0.00000000E+00
  1 1155 1071 0.00000000E+00
  1 1155 1115 0.00000000E+00
  1 1156 1030 0.00000000E+00
  1 1156 1040 0.00000000E+00
  1 1156 1056 0.00000000E+00
  1 1156 1072 0.00000000E+00
  1 1156 1114 0.00000000E+00
  1 1157 1030 0.00000000E+00
  1 1157 1041 0.00000000E+00
  1 1157 1056 0.00000000E+00
  1 1157 1072 0.00000000E+00
  1 1157 1114 0.00000000E+00
  1 1158 1030 0.00000000E+00
  1 1158 1042 0.00000000E+00
  1 1158 1057 0.00000000E+00
  1 1158 1073 0.00000000E+00
  1 1158 1114 0.00000000E+00
  1 1159 1030 0.00000000E+00
  1 1159 1042 0.00000000E+00
  1 1159 1057 0.00000000E+00
  1 1159 1074 0.00000000E+00
  1 1159 1113 0.00000000E+00
  1 1160 1031 0.00000000E+00
  1 1160 1043 0.00000000E+00
  1 1160 1057 0.00000000E+00
  1 1160 1075 0.00000000E+00
  1 1160 1113 0.00000000E+00
  1 1161 1031 0.00000000E+00
  1 1161 1043 0.00000000E+00
  1 1161 1057 0.00000000E+00
  1 1161 1076 0.00000000E+00
  1 1161 1113 0.00000000E+00
  1 1162 1032 0.00000000E+00
  1 1162 1044 0.00000000E+00
  1 1162 1057 0.00000000E+00
  1 1162 1077 0.00000000E+00
  1 1162 1112 0.00000000E+00
  1 1163 1032 0.00000000E+00
  1 1163 1044 0.00000000E+00
  1 1163 1057 0.00000000E+00
  1 1163 1078 0.00000000E+00
  1 1163 1112 0.00000000E+00
  1 1164 1033 0.00000000E+00
  1 1164 1045 0.00000000E+00
  1 1164 1057 0.00000000E+00
  1 1164 1079 0.00000000E+00
  1 1164 1111 0.00000000E+00
  1 1165 1033 0.00000000E+00
  1 1165 1045 0.00000000E+00
  1 1165 1056 0.00000000E+00
  1 1165 1080 0.00000000E+00
  1 1165 1081 0.00000000E+00
  1 1165 1111 0.00000000E+00
  1 1166 1034 0.00000000E+00
  1 1166 1045 0.00000000E+00
  1 1166 1056 0.00000000E+00
  1 1166 1082 0.00000000E+00
  1 1166 1083 0.00000000E+00
  1 1166 1110 0.00000000E+00
  1 1167 1034 0.00000000E+00
  1 1167 1045 0.00000000E+00
  1 1167 1056 0.00000000E+00
  1 1167 1084 0.00000000E+00
  1 1167 1085 0.00000000E+00
  1 1167 1110 0.00000000E+00
  1 1168 1033 0.00000000E+00
  1 1168 1045 0.00000000E+00
  1 1168 1052 0.00000000E+00
  1 1168 1053 0.00000000E+00
  1 1168 1055 0.00000000E+00
  1 1168 1086 0.00000000E+00
  1 1168 1087 0.00000000E+00
  1 1168 1109 0.00000000E+00
  1 1169 1033 0.00000000E+00
  1 1169 1046 0.00000000E+00
  1 1169 1050 0.00000000E+00
  1 1169 1051 0.00000000E+00
  1 1169 1054 0.00000000E+00
  1 1169 1055 0.00000000E+00
  1 1169 1088 0.00000000E+00
  1 1169 1089 0.00000000E+00
  1 1169 1108 0.00000000E+00
  1 1170 1033 0.00000000E+00
  1 1170 1046 0.00000000E+00
  1 1170 1047 0.00000000E+00
  1 1170 1048 0.00000000E+00
  1 1170 1049 0.00000000E+00
  1 1170 1090 0.00000000E+00
  1 1170 1091 0.00000000E+00
  1 1170 1107 0.00000000E+00
  1 1171 1032 0.00000000E+00
  1 1171 1092 0.00000000E+00
  1 1171 1093 0.00000000E+00
  1 1171 1106 0.00000000E+00
  1 1172 1032 0.00000000E+00
  1 1172 1094 0.00000000E+00
  1 1172 1095 0.00000000E+00
  1 1172 1105 0.00000000E+00
  1 1173 1032 0.00000000E+00
  1 1173 1096 0.00000000E+00
  1 1173 1104 0.00000000E+00
  1 1174 1032 0.00000000E+00
  1 1174 1097 0.00000000E+00
  1 1174 1103 0.00000000E+00
  1 1175 1031 0.00000000E+00
  1 1175 1098 0.00000000E+00
  1 1175 1102 0.00000000E+00
  1 1176 1031 0.00000000E+00
  1 1176 1099 0.00000000E+00
  1 1176 1101 0.00000000E+00
  1 1177 1032 0.00000000E+00
  1 1177 1100 0.00000000E+00
  1 1178 1033 0.00000000E+00
  1 1179 1033 0.00000000E+00
  1 1180 1034 0.00000000E+00
  1 1181 1028 0.00000000E+00
  1 1181 1035 0.00000000E+00
  1 1182 1026 0.00000000E+00
  1 1182 1027 0.00000000E+00
  1 1182 1029 0.00000000E+00
  1 1182 1030 0.00000000E+00
  1 1182 1036 0.00000000E+00
  1 1183 1024 0.00000000E+00
  1 1183 1025 0.00000000E+00
  1 1183 1031 0.00000000E+00
  1 1183 1032 0.00000000E+00
  1 1183 1036 0.00000000E+00
  1 1184 1023 0.00000000E+00
  1 1184 1033 0.00000000E+00
  1 1184 1034 0.00000000E+00
  1 1184 1035 0.00000000E+00
  1 1184 1036 0.00000000E+00
  1 1184 1037 0.00000000E+00
  1 1185 1023 0.00000000E+00
  1 1186 1023 0.00000000E+00
  1 1187 1022 0.00000000E+00
  1 1188 1022 0.00000000E+00
  1 1189 1022 0.00000000E+00
  1 1190 1022 0.00000000E+00
  1 1191 1021 0.00000000E+00
  1 1192 1021 0.00000000E+00
  1 1193 1021 0.00000000E+00
  1 1194 1022 0.00000000E+00
  1 1195 1023 0.00000000E+00
  1 1195 1024 0.00000000E+00
  1 1196 1025 0.00000000E+00
  1 1197 1025 0.00000000E+00
  1 1198 1025 0.00000000E+00
  1 1199 1024 0.00000000E+00
  1 1200 1024 0.00000000E+00
  1 1201 1024 0.00000000E+00
  1 1202 1024 0.00000000E+00
  1 1203 1023 0.00000000E+00
  1 1204 1023 0.00000000E+00
  1 1205 1023 0.00000000E+00
  1 1206 1023 0.00000000E+00
  1 1207 1023 0.00000000E+00
  1 1208 1022 0.00000000E+00
  1 1209 1013 0.00000000E+00
  1 1209 1022 0.00000000E+00
  1 1210 1011 0.00000000E+00
  1 1210 1012 0.00000000E+00
  1 1210 1014 0.00000000E+00
  1 1210 1022 0.00000000E+00
  1 1211 1010 0.00000000E+00
  1 1211 1015 0.00000000E+00
  1 1211 1022 0.00000000E+00
  1 1212 1010 0.00000000E+00
  1 1212 1016 0.00000000E+00
  1 1212 1022 0.00000000E+00
  1 1213 1011 0.00000000E+00
  1 1213 1017 0.00000000E+00
  1 1213 1018 0.00000000E+00
  1 1213 1019 0.00000000E+00
  1 1213 1022 0.00000000E+00
  1 1214 1000 0.00000000E+00
  1 1214 1001 0.00000000E+00
  1 1214 1011 0.00000000E+00
  1 1214 1020 0.00000000E+00
  1 1214 1021 0.00000000E+00
  1 1214 1022 0.00000000E+00
  1 1215 999 0.00000000E+00
  1 1215 1002 0.00000000E+00
  1 1215 1003 0.00000000E+00
  1 1215 1011 0.00000000E+00
  1 1216 998 0.00000000E+00
  1 1216 1003 0.00000000E+00
  1 1216 1011 0.00000000E+00
  1 1217 998 0.00000000E+00
  1 1217 1004 0.00000000E+00
  1 1217 1011 0.00000000E+00
  1 1218 999 0.00000000E+00
  1 1218 1004 0.00000000E+00
  1 1218 1012 0.00000000E+00
  1 1219 999 0.00000000E+00
  1 1219 1005 0.00000000E+00
  1 1219 1012 0.00000000E+00
  1 1220 1000 0.00000000E+00
  1 1220 1006 0.00000000E+00
  1 1220 1012 0.00000000E+00
  1 1221 1000 0.00000000E+00
  1 1221 1006 0.00000000E+00
  1 1221 1012 0.00000000E+00
  1 1222 1000 0.00000000E+00
  1 1222 1007 0.00000000E+00
  1 1222 1012 0.00000000E+00
  1 1223 1000 0.00000000E+00
  1 1223 1008 0.00000000E+00
  1 1223 1012 0.00000000E+00
  1 1224 994 0.00000000E+00
  1 1224 995 0.00000000E+00
  1 1224 996 0.00000000E+00
  1 1224 1000 0.00000000E+00
  1 1224 1008 0.00000000E+00
  1 1224 1012 0.00000000E+00
  1 1225 992 0.00000000E+00
  1 1225 993 0.00000000E+00
  1 1225 997 0.00000000E+00
  1 1225 998 0.00000000E+00
  1 1225 999 0.00000000E+00
  1 1225 1009 0.00000000E+00
  1 1225 1012 0.00000000E+00
  1 1226 991 0.00000000E+00
  1 1226 1010 0.00000000E+00
  1 1226 1012 0.00000000E+00
  1 1227 991 0.00000000E+00
  1 1227 1011 0.00000000E+00
  1 1227 1012 0.00000000E+00
  1 1228 991 0.00000000E+00
  1 1228 1011 0.00000000E+00
  1 1228 1012 0.00000000E+00
  1 1229 991 0.00000000E+00
  1 1229 1012 0.00000000E+00
  1 1230 992 0.00000000E+00
  1 1231 992 0.00000000E+00
  1 1232 977 0.00000000E+00
  1 1232 978 0.00000000E+00
  1 1232 992 0.00000000E+00
  1 1233 976 0.00000000E+00
  1 1233 979 0.00000000E+00
  1 1233 992 0.00000000E+00
  1 1234 976 0.00000000E+00
  1 1234 980 0.00000000E+00
  1 1234 991 0.00000000E+00
  1 1235 976 0.00000000E+00
  1 1235 981 0.00000000E+00
  1 1235 991 0.00000000E+00
  1 1236 975 0.00000000E+00
  1 1236 982 0.00000000E+00
  1 1236 990 0.00000000E+00
  1 1237 975 0.00000000E+00
  1 1237 983 0.00000000E+00
  1 1237 984 0.00000000E+00
  1 1237 990 0.00000000E+00
  1 1238 975 0.00000000E+00
  1 1238 985 0.00000000E+00
  1 1238 989 0.00000000E+00
  1 1239 975 0.00000000E+00
  1 1239 986 0.00000000E+00
  1 1239 989 0.00000000E+00
  1 1240 976 0.00000000E+00
  1 1240 987 0.00000000E+00
  1 1240 988 0.00000000E+00
  1 1241 977 0.00000000E+00
  1 1242 977 0.00000000E+00
  1 1243 977 0.00000000E+00
  1 1244 977 0.00000000E+00
  1 1245 976 0.00000000E+00
  1 1246 976 0.00000000E+00
  1 1247 949 0.00000000E+00
  1 1247 976 0.00000000E+00
  1 1248 948 0.00000000E+00
  1 1248 949 0.00000000E+00
  1 1248 976 0.00000000E+00
  1 1249 947 0.00000000E+00
  1 1249 950 0.00000000E+00
  1 1249 976 0.00000000E+00
  1 1250 946 0.00000000E+00
  1 1250 950 0.00000000E+00
  1 1250 976 0.00000000E+00
  1 1251 946 0.00000000E+00
  1 1251 951 0.00000000E+00
  1 1251 976 0.00000000E+00
  1 1252 945 0.00000000E+00
  1 1252 951 0.00000000E+00
  1 1252 976 0.00000000E+00
  1 1253 944 0.00000000E+00
  1 1253 952 0.00000000E+00
  1 1253 975 0.00000000E+00
  1 1254 722 0.00000000E+00
  1 1254 943 0.00000000E+00
  1 1254 952 0.00000000E+00
  1 1254 975 0.00000000E+00
  1 1255 720 0.00000000E+00
  1 1255 721 0.00000000E+00
  1 1255 723 0.00000000E+00
  1 1255 840 0.00000000E+00
  1 1255 841 0.00000000E+00
  1 1255 936 0.00000000E+00
  1 1255 937 0.00000000E+00
  1 1255 943 0.00000000E+00
  1 1255 952 0.00000000E+00
  1 1255 975 0.00000000E+00
  1 1256 719 0.00000000E+00
  1 1256 724 0.00000000E+00
  1 1256 838 0.00000000E+00
  1 1256 839 0.00000000E+00
  1 1256 842 0.00000000E+00
  1 1256 843 0.00000000E+00
  1 1256 934 0.00000000E+00
  1 1256 935 0.00000000E+00
  1 1256 938 0.00000000E+00
  1 1256 939 0.00000000E+00
  1 1256 942 0.00000000E+00
  1 1256 953 0.00000000E+00
  1 1256 973 0.00000000E+00
  1 1256 974 0.00000000E+00
  1 1256 975 0.00000000E+00
  1 1257 719 0.00000000E+00
  1 1257 725 0.00000000E+00
  1 1257 836 0.00000000E+00
  1 1257 837 0.00000000E+00
  1 1257 844 0.00000000E+00
  1 1257 931 0.00000000E+00
  1 1257 932 0.00000000E+00
  1 1257 933 0.00000000E+00
  1 1257 940 0.00000000E+00
  1 1257 942 0.00000000E+00
  1 1257 953 0.00000000E+00
  1 1257 972 0.00000000E+00
  1 1258 720 0.00000000E+00
  1 1258 726 0.00000000E+00
  1 1258 835 0.00000000E+00
  1 1258 845 0.00000000E+00
  1 1258 859 0.00000000E+00
  1 1258 860 0.00000000E+00
  1 1258 861 0.00000000E+00
  1 1258 929 0.00000000E+00
  1 1258 930 0.00000000E+00
  1 1258 941 0.00000000E+00
  1 1258 953 0.00000000E+00
  1 1258 972 0.00000000E+00
  1 1259 720 0.00000000E+00
  1 1259 727 0.00000000E+00
  1 1259 835 0.00000000E+00
  1 1259 845 0.00000000E+00
  1 1259 858 0.00000000E+00
  1 1259 862 0.00000000E+00
  1 1259 863 0.00000000E+00
  1 1259 927 0.00000000E+00
  1 1259 928 0.00000000E+00
  1 1259 954 0.00000000E+00
  1 1259 972 0.00000000E+00
  1 1260 720 0.00000000E+00
  1 1260 728 0.00000000E+00
  1 1260 835 0.00000000E+00
  1 1260 845 0.00000000E+00
  1 1260 858 0.00000000E+00
  1 1260 864 0.00000000E+00
  1 1260 927 0.00000000E+00
  1 1260 954 0.00000000E+00
  1 1260 973 0.00000000E+00
  1 1261 720 0.00000000E+00
  1 1261 728 0.00000000E+00
  1 1261 835 0.00000000E+00
  1 1261 845 0.00000000E+00
  1 1261 858 0.00000000E+00
  1 1261 865 0.00000000E+00
  1 1261 927 0.00000000E+00
  1 1261 954 0.00000000E+00
  1 1261 973 0.00000000E+00
  1 1262 721 0.00000000E+00
  1 1262 729 0.00000000E+00
  1 1262 835 0.00000000E+00
  1 1262 845 0.00000000E+00
  1 1262 859 0.00000000E+00
  1 1262 866 0.00000000E+00
  1 1262 926 0.00000000E+00
  1 1262 954 0.00000000E+00
  1 1262 974 0.00000000E+00
  1 1263 721 0.00000000E+00
  1 1263 729 0.00000000E+00
  1 1263 835 0.00000000E+00
  1 1263 845 0.00000000E+00
  1 1263 859 0.00000000E+00
  1 1263 867 0.00000000E+00
  1 1263 926 0.00000000E+00
  1 1263 954 0.00000000E+00
  1 1263 955 0.00000000E+00
  1 1263 974 0.00000000E+00
  1 1264 721 0.00000000E+00
  1 1264 730 0.00000000E+00
  1 1264 836 0.00000000E+00
  1 1264 845 0.00000000E+00
  1 1264 859 0.00000000E+00
  1 1264 868 0.00000000E+00
  1 1264 926 0.00000000E+00
  1 1264 956 0.00000000E+00
  1 1264 957 0.00000000E+00
  1 1264 975 0.00000000E+00
  1 1265 722 0.00000000E+00
  1 1265 730 0.00000000E+00
  1 1265 828 0.00000000E+00
  1 1265 829 0.00000000E+00
  1 1265 836 0.00000000E+00
  1 1265 845 0.00000000E+00
  1 1265 859 0.00000000E+00
  1 1265 869 0.00000000E+00
  1 1265 927 0.00000000E+00
  1 1265 958 0.00000000E+00
  1 1265 959 0.00000000E+00
  1 1265 960 0.00000000E+00
  1 1265 961 0.00000000E+00
  1 1265 962 0.00000000E+00
  1 1265 963 0.00000000E+00