# File generated by Flopy version 3.10.0.dev1 on 11/18/2025 at 19:24:18.
BEGIN options
END options

BEGIN Timing
  TDIS6  0101_0102_0103_0105_MF6_SS_Unconfined_250.tdis
END Timing

BEGIN Models
  gwf6  0101_0102_0103_0105_MF6_SS_Unconfined_250.nam  gwf0
END Models

BEGIN Exchanges
END Exchanges

BEGIN SolutionGroup  1
  MXITER  1
  ims6  0101_0102_0103_0105_MF6_SS_Unconfined_250.ims  gwf0
END SolutionGroup  1

