# freyberg_lgr_inset model version 0.post69.dev0+g5e43358
# freyberg_lgr_parent model version 0.post69.dev0+g5e43358
# File generated by Flopy version 3.10.0.dev1 on 11/21/2025 at 17:18:29.
# via modflow-setup version 0.6.0 at 2025-11-21 17:18:29
BEGIN options
  TIME_UNITS  days
  START_DATE_TIME  2020-01-01
END options

BEGIN dimensions
  NPER  37
END dimensions

BEGIN perioddata
  # perlen nstp tsmult
  1.00000000  1       1.00000000  # period 1: 2020-01-01 to 2020-01-01
  31.00000000  1       1.00000000  # period 2: 2020-01-01 to 2020-02-01
  29.00000000  1       1.00000000  # period 3: 2020-02-01 to 2020-03-01
  31.00000000  1       1.00000000  # period 4: 2020-03-01 to 2020-04-01
  30.00000000  1       1.00000000  # period 5: 2020-04-01 to 2020-05-01
  31.00000000  1       1.00000000  # period 6: 2020-05-01 to 2020-06-01
  30.00000000  1       1.00000000  # period 7: 2020-06-01 to 2020-07-01
  31.00000000  1       1.00000000  # period 8: 2020-07-01 to 2020-08-01
  31.00000000  1       1.00000000  # period 9: 2020-08-01 to 2020-09-01
  30.00000000  1       1.00000000  # period 10: 2020-09-01 to 2020-10-01
  31.00000000  1       1.00000000  # period 11: 2020-10-01 to 2020-11-01
  30.00000000  1       1.00000000  # period 12: 2020-11-01 to 2020-12-01
  31.00000000  1       1.00000000  # period 13: 2020-12-01 to 2021-01-01
  31.00000000  1       1.00000000  # period 14: 2021-01-01 to 2021-02-01
  28.00000000  1       1.00000000  # period 15: 2021-02-01 to 2021-03-01
  31.00000000  1       1.00000000  # period 16: 2021-03-01 to 2021-04-01
  30.00000000  1       1.00000000  # period 17: 2021-04-01 to 2021-05-01
  31.00000000  1       1.00000000  # period 18: 2021-05-01 to 2021-06-01
  30.00000000  1       1.00000000  # period 19: 2021-06-01 to 2021-07-01
  31.00000000  1       1.00000000  # period 20: 2021-07-01 to 2021-08-01
  31.00000000  1       1.00000000  # period 21: 2021-08-01 to 2021-09-01
  30.00000000  1       1.00000000  # period 22: 2021-09-01 to 2021-10-01
  31.00000000  1       1.00000000  # period 23: 2021-10-01 to 2021-11-01
  30.00000000  1       1.00000000  # period 24: 2021-11-01 to 2021-12-01
  31.00000000  1       1.00000000  # period 25: 2021-12-01 to 2022-01-01
  31.00000000  1       1.00000000  # period 26: 2022-01-01 to 2022-02-01
  28.00000000  1       1.00000000  # period 27: 2022-02-01 to 2022-03-01
  31.00000000  1       1.00000000  # period 28: 2022-03-01 to 2022-04-01
  30.00000000  1       1.00000000  # period 29: 2022-04-01 to 2022-05-01
  31.00000000  1       1.00000000  # period 30: 2022-05-01 to 2022-06-01
  30.00000000  1       1.00000000  # period 31: 2022-06-01 to 2022-07-01
  31.00000000  1       1.00000000  # period 32: 2022-07-01 to 2022-08-01
  31.00000000  1       1.00000000  # period 33: 2022-08-01 to 2022-09-01
  30.00000000  1       1.00000000  # period 34: 2022-09-01 to 2022-10-01
  31.00000000  1       1.00000000  # period 35: 2022-10-01 to 2022-11-01
  30.00000000  1       1.00000000  # period 36: 2022-11-01 to 2022-12-01
  30.00000000  1       1.00000000  # period 37: 2022-12-01 to 2022-12-31
END perioddata

