# freyberg_lgr_inset model version 0.post69.dev0+g5e43358
# freyberg_lgr_parent model version 0.post69.dev0+g5e43358
# File generated by Flopy version 3.10.0.dev1 on 11/21/2025 at 17:18:29.
# via modflow-setup version 0.6.0 at 2025-11-21 17:18:29
BEGIN options
  PRINT_OPTION  all
  COMPLEXITY  complex
  CSV_OUTER_OUTPUT  FILEOUT  solver_outer_out.csv
END options

BEGIN nonlinear
  OUTER_MAXIMUM  200
END nonlinear

BEGIN linear
  RELAXATION_FACTOR       0.98000000
END linear

