# freyberg_lgr_parent model version 0.post69.dev0+g5e43358
# File generated by Flopy version 3.10.0.dev1 on 11/21/2025 at 17:18:29.
# via modflow-setup version 0.6.0 at 2025-11-21 17:18:29
BEGIN options
  SAVE_FLOWS
END options

BEGIN griddata
  iconvert
    CONSTANT  1
  ss
    CONSTANT  1.00000000E-05
  sy
    CONSTANT       0.15000000
END griddata

BEGIN period  1
  STEADY-STATE
END period  1

BEGIN period  2
  TRANSIENT
END period  2

BEGIN period  3
  TRANSIENT
END period  3

BEGIN period  4
  TRANSIENT
END period  4

BEGIN period  5
  TRANSIENT
END period  5

BEGIN period  6
  TRANSIENT
END period  6

BEGIN period  7
  TRANSIENT
END period  7

BEGIN period  8
  TRANSIENT
END period  8

BEGIN period  9
  TRANSIENT
END period  9

BEGIN period  10
  TRANSIENT
END period  10

BEGIN period  11
  TRANSIENT
END period  11

BEGIN period  12
  TRANSIENT
END period  12

BEGIN period  13
  TRANSIENT
END period  13

BEGIN period  14
  TRANSIENT
END period  14

BEGIN period  15
  TRANSIENT
END period  15

BEGIN period  16
  TRANSIENT
END period  16

BEGIN period  17
  TRANSIENT
END period  17

BEGIN period  18
  TRANSIENT
END period  18

BEGIN period  19
  TRANSIENT
END period  19

BEGIN period  20
  TRANSIENT
END period  20

BEGIN period  21
  TRANSIENT
END period  21

BEGIN period  22
  TRANSIENT
END period  22

BEGIN period  23
  TRANSIENT
END period  23

BEGIN period  24
  TRANSIENT
END period  24

BEGIN period  25
  TRANSIENT
END period  25

BEGIN period  26
  TRANSIENT
END period  26

BEGIN period  27
  TRANSIENT
END period  27

BEGIN period  28
  TRANSIENT
END period  28

BEGIN period  29
  TRANSIENT
END period  29

BEGIN period  30
  TRANSIENT
END period  30

BEGIN period  31
  TRANSIENT
END period  31

BEGIN period  32
  TRANSIENT
END period  32

BEGIN period  33
  TRANSIENT
END period  33

BEGIN period  34
  TRANSIENT
END period  34

BEGIN period  35
  TRANSIENT
END period  35

BEGIN period  36
  TRANSIENT
END period  36

BEGIN period  37
  TRANSIENT
END period  37

