# freyberg_lgr_inset model version 0.post69.dev0+g5e43358
# freyberg_lgr_parent model version 0.post69.dev0+g5e43358
# File generated by Flopy version 3.10.0.dev1 on 11/21/2025 at 17:18:29.
# via modflow-setup version 0.6.0 at 2025-11-21 17:18:29
BEGIN options
  auxiliary  angldegx  cdist
END options

BEGIN dimensions
  NEXG  1380
END dimensions

BEGIN exchangedata
  1 8 11  1 1 1  1     125.00000000      12.50000000      25.00000000       0.00000000     177.65838004
  1 7 12  1 1 1  1     125.00000000      12.50000000      25.00000000     270.00000000     177.65838004
  1 7 12  1 1 2  1     125.00000000      12.50000000      25.00000000     270.00000000     162.98006013
  1 7 12  1 1 3  1     125.00000000      12.50000000      25.00000000     270.00000000     151.03807467
  1 7 12  1 1 4  1     125.00000000      12.50000000      25.00000000     270.00000000     142.52192814
  1 7 12  1 1 5  1     125.00000000      12.50000000      25.00000000     270.00000000     138.06701271
  1 7 12  1 1 6  1     125.00000000      12.50000000      25.00000000     270.00000000     138.06701271
  1 7 12  1 1 7  1     125.00000000      12.50000000      25.00000000     270.00000000     142.52192814
  1 7 12  1 1 8  1     125.00000000      12.50000000      25.00000000     270.00000000     151.03807467
  1 7 12  1 1 9  1     125.00000000      12.50000000      25.00000000     270.00000000     162.98006013
  1 7 12  1 1 10  1     125.00000000      12.50000000      25.00000000     270.00000000     177.65838004
  1 7 13  1 1 11  1     125.00000000      12.50000000      25.00000000     270.00000000     177.65838004
  1 7 13  1 1 12  1     125.00000000      12.50000000      25.00000000     270.00000000     162.98006013
  1 7 13  1 1 13  1     125.00000000      12.50000000      25.00000000     270.00000000     151.03807467
  1 7 13  1 1 14  1     125.00000000      12.50000000      25.00000000     270.00000000     142.52192814
  1 7 13  1 1 15  1     125.00000000      12.50000000      25.00000000     270.00000000     138.06701271
  1 7 13  1 1 16  1     125.00000000      12.50000000      25.00000000     270.00000000     138.06701271
  1 7 13  1 1 17  1     125.00000000      12.50000000      25.00000000     270.00000000     142.52192814
  1 7 13  1 1 18  1     125.00000000      12.50000000      25.00000000     270.00000000     151.03807467
  1 7 13  1 1 19  1     125.00000000      12.50000000      25.00000000     270.00000000     162.98006013
  1 7 13  1 1 20  1     125.00000000      12.50000000      25.00000000     270.00000000     177.65838004
  1 7 14  1 1 21  1     125.00000000      12.50000000      25.00000000     270.00000000     177.65838004
  1 7 14  1 1 22  1     125.00000000      12.50000000      25.00000000     270.00000000     162.98006013
  1 7 14  1 1 23  1     125.00000000      12.50000000      25.00000000     270.00000000     151.03807467
  1 7 14  1 1 24  1     125.00000000      12.50000000      25.00000000     270.00000000     142.52192814
  1 7 14  1 1 25  1     125.00000000      12.50000000      25.00000000     270.00000000     138.06701271
  1 7 14  1 1 26  1     125.00000000      12.50000000      25.00000000     270.00000000     138.06701271
  1 7 14  1 1 27  1     125.00000000      12.50000000      25.00000000     270.00000000     142.52192814
  1 7 14  1 1 28  1     125.00000000      12.50000000      25.00000000     270.00000000     151.03807467
  1 7 14  1 1 29  1     125.00000000      12.50000000      25.00000000     270.00000000     162.98006013
  1 7 14  1 1 30  1     125.00000000      12.50000000      25.00000000     270.00000000     177.65838004
  1 7 15  1 1 31  1     125.00000000      12.50000000      25.00000000     270.00000000     177.65838004
  1 7 15  1 1 32  1     125.00000000      12.50000000      25.00000000     270.00000000     162.98006013
  1 7 15  1 1 33  1     125.00000000      12.50000000      25.00000000     270.00000000     151.03807467
  1 7 15  1 1 34  1     125.00000000      12.50000000      25.00000000     270.00000000     142.52192814
  1 7 15  1 1 35  1     125.00000000      12.50000000      25.00000000     270.00000000     138.06701271
  1 7 15  1 1 36  1     125.00000000      12.50000000      25.00000000     270.00000000     138.06701271
  1 7 15  1 1 37  1     125.00000000      12.50000000      25.00000000     270.00000000     142.52192814
  1 7 15  1 1 38  1     125.00000000      12.50000000      25.00000000     270.00000000     151.03807467
  1 7 15  1 1 39  1     125.00000000      12.50000000      25.00000000     270.00000000     162.98006013
  1 7 15  1 1 40  1     125.00000000      12.50000000      25.00000000     270.00000000     177.65838004
  1 7 16  1 1 41  1     125.00000000      12.50000000      25.00000000     270.00000000     177.65838004
  1 7 16  1 1 42  1     125.00000000      12.50000000      25.00000000     270.00000000     162.98006013
  1 7 16  1 1 43  1     125.00000000      12.50000000      25.00000000     270.00000000     151.03807467
  1 7 16  1 1 44  1     125.00000000      12.50000000      25.00000000     270.00000000     142.52192814
  1 7 16  1 1 45  1     125.00000000      12.50000000      25.00000000     270.00000000     138.06701271
  1 7 16  1 1 46  1     125.00000000      12.50000000      25.00000000     270.00000000     138.06701271
  1 7 16  1 1 47  1     125.00000000      12.50000000      25.00000000     270.00000000     142.52192814
  1 7 16  1 1 48  1     125.00000000      12.50000000      25.00000000     270.00000000     151.03807467
  1 7 16  1 1 49  1     125.00000000      12.50000000      25.00000000     270.00000000     162.98006013
  1 7 16  1 1 50  1     125.00000000      12.50000000      25.00000000     270.00000000     177.65838004
  1 7 17  1 1 51  1     125.00000000      12.50000000      25.00000000     270.00000000     177.65838004
  1 7 17  1 1 52  1     125.00000000      12.50000000      25.00000000     270.00000000     162.98006013
  1 7 17  1 1 53  1     125.00000000      12.50000000      25.00000000     270.00000000     151.03807467
  1 7 17  1 1 54  1     125.00000000      12.50000000      25.00000000     270.00000000     142.52192814
  1 7 17  1 1 55  1     125.00000000      12.50000000      25.00000000     270.00000000     138.06701271
  1 7 17  1 1 56  1     125.00000000      12.50000000      25.00000000     270.00000000     138.06701271
  1 7 17  1 1 57  1     125.00000000      12.50000000      25.00000000     270.00000000     142.52192814
  1 7 17  1 1 58  1     125.00000000      12.50000000      25.00000000     270.00000000     151.03807467
  1 7 17  1 1 59  1     125.00000000      12.50000000      25.00000000     270.00000000     162.98006013
  1 7 17  1 1 60  1     125.00000000      12.50000000      25.00000000     270.00000000     177.65838004
  1 7 18  1 1 61  1     125.00000000      12.50000000      25.00000000     270.00000000     177.65838004
  1 7 18  1 1 62  1     125.00000000      12.50000000      25.00000000     270.00000000     162.98006013
  1 7 18  1 1 63  1     125.00000000      12.50000000      25.00000000     270.00000000     151.03807467
  1 7 18  1 1 64  1     125.00000000      12.50000000      25.00000000     270.00000000     142.52192814
  1 7 18  1 1 65  1     125.00000000      12.50000000      25.00000000     270.00000000     138.06701271
  1 7 18  1 1 66  1     125.00000000      12.50000000      25.00000000     270.00000000     138.06701271
  1 7 18  1 1 67  1     125.00000000      12.50000000      25.00000000     270.00000000     142.52192814
  1 7 18  1 1 68  1     125.00000000      12.50000000      25.00000000     270.00000000     151.03807467
  1 7 18  1 1 69  1     125.00000000      12.50000000      25.00000000     270.00000000     162.98006013
  1 7 18  1 1 70  1     125.00000000      12.50000000      25.00000000     270.00000000     177.65838004
  1 7 19  1 1 71  1     125.00000000      12.50000000      25.00000000     270.00000000     177.65838004
  1 7 19  1 1 72  1     125.00000000      12.50000000      25.00000000     270.00000000     162.98006013
  1 7 19  1 1 73  1     125.00000000      12.50000000      25.00000000     270.00000000     151.03807467
  1 7 19  1 1 74  1     125.00000000      12.50000000      25.00000000     270.00000000     142.52192814
  1 7 19  1 1 75  1     125.00000000      12.50000000      25.00000000     270.00000000     138.06701271
  1 7 19  1 1 76  1     125.00000000      12.50000000      25.00000000     270.00000000     138.06701271
  1 7 19  1 1 77  1     125.00000000      12.50000000      25.00000000     270.00000000     142.52192814
  1 7 19  1 1 78  1     125.00000000      12.50000000      25.00000000     270.00000000     151.03807467
  1 7 19  1 1 79  1     125.00000000      12.50000000      25.00000000     270.00000000     162.98006013
  1 8 20  1 1 80  1     125.00000000      12.50000000      25.00000000     180.00000000     177.65838004
  1 7 19  1 1 80  1     125.00000000      12.50000000      25.00000000     270.00000000     177.65838004
  1 8 11  1 2 1  1     125.00000000      12.50000000      25.00000000       0.00000000     162.98006013
  1 8 20  1 2 80  1     125.00000000      12.50000000      25.00000000     180.00000000     162.98006013
  1 8 11  1 3 1  1     125.00000000      12.50000000      25.00000000       0.00000000     151.03807467
  1 8 20  1 3 80  1     125.00000000      12.50000000      25.00000000     180.00000000     151.03807467
  1 8 11  1 4 1  1     125.00000000      12.50000000      25.00000000       0.00000000     142.52192814
  1 8 20  1 4 80  1     125.00000000      12.50000000      25.00000000     180.00000000     142.52192814
  1 8 11  1 5 1  1     125.00000000      12.50000000      25.00000000       0.00000000     138.06701271
  1 8 20  1 5 80  1     125.00000000      12.50000000      25.00000000     180.00000000     138.06701271
  1 8 11  1 6 1  1     125.00000000      12.50000000      25.00000000       0.00000000     138.06701271
  1 8 20  1 6 80  1     125.00000000      12.50000000      25.00000000     180.00000000     138.06701271
  1 8 11  1 7 1  1     125.00000000      12.50000000      25.00000000       0.00000000     142.52192814
  1 8 20  1 7 80  1     125.00000000      12.50000000      25.00000000     180.00000000     142.52192814
  1 8 11  1 8 1  1     125.00000000      12.50000000      25.00000000       0.00000000     151.03807467
  1 8 20  1 8 80  1     125.00000000      12.50000000      25.00000000     180.00000000     151.03807467
  1 8 11  1 9 1  1     125.00000000      12.50000000      25.00000000       0.00000000     162.98006013
  1 8 20  1 9 80  1     125.00000000      12.50000000      25.00000000     180.00000000     162.98006013
  1 8 11  1 10 1  1     125.00000000      12.50000000      25.00000000       0.00000000     177.65838004
  1 8 20  1 10 80  1     125.00000000      12.50000000      25.00000000     180.00000000     177.65838004
  1 9 11  1 11 1  1     125.00000000      12.50000000      25.00000000       0.00000000     177.65838004
  1 9 20  1 11 80  1     125.00000000      12.50000000      25.00000000     180.00000000     177.65838004
  1 9 11  1 12 1  1     125.00000000      12.50000000      25.00000000       0.00000000     162.98006013
  1 9 20  1 12 80  1     125.00000000      12.50000000      25.00000000     180.00000000     162.98006013
  1 9 11  1 13 1  1     125.00000000      12.50000000      25.00000000       0.00000000     151.03807467
  1 9 20  1 13 80  1     125.00000000      12.50000000      25.00000000     180.00000000     151.03807467
  1 9 11  1 14 1  1     125.00000000      12.50000000      25.00000000       0.00000000     142.52192814
  1 9 20  1 14 80  1     125.00000000      12.50000000      25.00000000     180.00000000     142.52192814
  1 9 11  1 15 1  1     125.00000000      12.50000000      25.00000000       0.00000000     138.06701271
  1 9 20  1 15 80  1     125.00000000      12.50000000      25.00000000     180.00000000     138.06701271
  1 9 11  1 16 1  1     125.00000000      12.50000000      25.00000000       0.00000000     138.06701271
  1 9 20  1 16 80  1     125.00000000      12.50000000      25.00000000     180.00000000     138.06701271
  1 9 11  1 17 1  1     125.00000000      12.50000000      25.00000000       0.00000000     142.52192814
  1 9 20  1 17 80  1     125.00000000      12.50000000      25.00000000     180.00000000     142.52192814
  1 9 11  1 18 1  1     125.00000000      12.50000000      25.00000000       0.00000000     151.03807467
  1 9 20  1 18 80  1     125.00000000      12.50000000      25.00000000     180.00000000     151.03807467
  1 9 11  1 19 1  1     125.00000000      12.50000000      25.00000000       0.00000000     162.98006013
  1 9 20  1 19 80  1     125.00000000      12.50000000      25.00000000     180.00000000     162.98006013
  1 9 11  1 20 1  1     125.00000000      12.50000000      25.00000000       0.00000000     177.65838004
  1 9 20  1 20 80  1     125.00000000      12.50000000      25.00000000     180.00000000     177.65838004
  1 10 11  1 21 1  1     125.00000000      12.50000000      25.00000000       0.00000000     177.65838004
  1 10 20  1 21 80  1     125.00000000      12.50000000      25.00000000     180.00000000     177.65838004
  1 10 11  1 22 1  1     125.00000000      12.50000000      25.00000000       0.00000000     162.98006013
  1 10 20  1 22 80  1     125.00000000      12.50000000      25.00000000     180.00000000     162.98006013
  1 10 11  1 23 1  1     125.00000000      12.50000000      25.00000000       0.00000000     151.03807467
  1 10 20  1 23 80  1     125.00000000      12.50000000      25.00000000     180.00000000     151.03807467
  1 10 11  1 24 1  1     125.00000000      12.50000000      25.00000000       0.00000000     142.52192814
  1 10 20  1 24 80  1     125.00000000      12.50000000      25.00000000     180.00000000     142.52192814
  1 10 11  1 25 1  1     125.00000000      12.50000000      25.00000000       0.00000000     138.06701271
  1 10 20  1 25 80  1     125.00000000      12.50000000      25.00000000     180.00000000     138.06701271
  1 10 11  1 26 1  1     125.00000000      12.50000000      25.00000000       0.00000000     138.06701271
  1 10 20  1 26 80  1     125.00000000      12.50000000      25.00000000     180.00000000     138.06701271
  1 10 11  1 27 1  1     125.00000000      12.50000000      25.00000000       0.00000000     142.52192814
  1 10 20  1 27 80  1     125.00000000      12.50000000      25.00000000     180.00000000     142.52192814
  1 10 11  1 28 1  1     125.00000000      12.50000000      25.00000000       0.00000000     151.03807467
  1 10 20  1 28 80  1     125.00000000      12.50000000      25.00000000     180.00000000     151.03807467
  1 10 11  1 29 1  1     125.00000000      12.50000000      25.00000000       0.00000000     162.98006013
  1 10 20  1 29 80  1     125.00000000      12.50000000      25.00000000     180.00000000     162.98006013
  1 10 11  1 30 1  1     125.00000000      12.50000000      25.00000000       0.00000000     177.65838004
  1 10 20  1 30 80  1     125.00000000      12.50000000      25.00000000     180.00000000     177.65838004
  1 11 11  1 31 1  1     125.00000000      12.50000000      25.00000000       0.00000000     177.65838004
  1 11 20  1 31 80  1     125.00000000      12.50000000      25.00000000     180.00000000     177.65838004
  1 11 11  1 32 1  1     125.00000000      12.50000000      25.00000000       0.00000000     162.98006013
  1 11 20  1 32 80  1     125.00000000      12.50000000      25.00000000     180.00000000     162.98006013
  1 11 11  1 33 1  1     125.00000000      12.50000000      25.00000000       0.00000000     151.03807467
  1 11 20  1 33 80  1     125.00000000      12.50000000      25.00000000     180.00000000     151.03807467
  1 11 11  1 34 1  1     125.00000000      12.50000000      25.00000000       0.00000000     142.52192814
  1 11 20  1 34 80  1     125.00000000      12.50000000      25.00000000     180.00000000     142.52192814
  1 11 11  1 35 1  1     125.00000000      12.50000000      25.00000000       0.00000000     138.06701271
  1 11 20  1 35 80  1     125.00000000      12.50000000      25.00000000     180.00000000     138.06701271
  1 11 11  1 36 1  1     125.00000000      12.50000000      25.00000000       0.00000000     138.06701271
  1 11 20  1 36 80  1     125.00000000      12.50000000      25.00000000     180.00000000     138.06701271
  1 11 11  1 37 1  1     125.00000000      12.50000000      25.00000000       0.00000000     142.52192814
  1 11 20  1 37 80  1     125.00000000      12.50000000      25.00000000     180.00000000     142.52192814
  1 11 11  1 38 1  1     125.00000000      12.50000000      25.00000000       0.00000000     151.03807467
  1 11 20  1 38 80  1     125.00000000      12.50000000      25.00000000     180.00000000     151.03807467
  1 11 11  1 39 1  1     125.00000000      12.50000000      25.00000000       0.00000000     162.98006013
  1 11 20  1 39 80  1     125.00000000      12.50000000      25.00000000     180.00000000     162.98006013
  1 11 11  1 40 1  1     125.00000000      12.50000000      25.00000000       0.00000000     177.65838004
  1 11 20  1 40 80  1     125.00000000      12.50000000      25.00000000     180.00000000     177.65838004
  1 12 11  1 41 1  1     125.00000000      12.50000000      25.00000000       0.00000000     177.65838004
  1 12 20  1 41 80  1     125.00000000      12.50000000      25.00000000     180.00000000     177.65838004
  1 12 11  1 42 1  1     125.00000000      12.50000000      25.00000000       0.00000000     162.98006013
  1 12 20  1 42 80  1     125.00000000      12.50000000      25.00000000     180.00000000     162.98006013
  1 12 11  1 43 1  1     125.00000000      12.50000000      25.00000000       0.00000000     151.03807467
  1 12 20  1 43 80  1     125.00000000      12.50000000      25.00000000     180.00000000     151.03807467
  1 12 11  1 44 1  1     125.00000000      12.50000000      25.00000000       0.00000000     142.52192814
  1 12 20  1 44 80  1     125.00000000      12.50000000      25.00000000     180.00000000     142.52192814
  1 12 11  1 45 1  1     125.00000000      12.50000000      25.00000000       0.00000000     138.06701271
  1 12 20  1 45 80  1     125.00000000      12.50000000      25.00000000     180.00000000     138.06701271
  1 12 11  1 46 1  1     125.00000000      12.50000000      25.00000000       0.00000000     138.06701271
  1 12 20  1 46 80  1     125.00000000      12.50000000      25.00000000     180.00000000     138.06701271
  1 12 11  1 47 1  1     125.00000000      12.50000000      25.00000000       0.00000000     142.52192814
  1 12 20  1 47 80  1     125.00000000      12.50000000      25.00000000     180.00000000     142.52192814
  1 12 11  1 48 1  1     125.00000000      12.50000000      25.00000000       0.00000000     151.03807467
  1 12 20  1 48 80  1     125.00000000      12.50000000      25.00000000     180.00000000     151.03807467
  1 12 11  1 49 1  1     125.00000000      12.50000000      25.00000000       0.00000000     162.98006013
  1 12 20  1 49 80  1     125.00000000      12.50000000      25.00000000     180.00000000     162.98006013
  1 12 11  1 50 1  1     125.00000000      12.50000000      25.00000000       0.00000000     177.65838004
  1 12 20  1 50 80  1     125.00000000      12.50000000      25.00000000     180.00000000     177.65838004
  1 13 11  1 51 1  1     125.00000000      12.50000000      25.00000000       0.00000000     177.65838004
  1 13 20  1 51 80  1     125.00000000      12.50000000      25.00000000     180.00000000     177.65838004
  1 13 11  1 52 1  1     125.00000000      12.50000000      25.00000000       0.00000000     162.98006013
  1 13 20  1 52 80  1     125.00000000      12.50000000      25.00000000     180.00000000     162.98006013
  1 13 11  1 53 1  1     125.00000000      12.50000000      25.00000000       0.00000000     151.03807467
  1 13 20  1 53 80  1     125.00000000      12.50000000      25.00000000     180.00000000     151.03807467
  1 13 11  1 54 1  1     125.00000000      12.50000000      25.00000000       0.00000000     142.52192814
  1 13 20  1 54 80  1     125.00000000      12.50000000      25.00000000     180.00000000     142.52192814
  1 13 11  1 55 1  1     125.00000000      12.50000000      25.00000000       0.00000000     138.06701271
  1 13 20  1 55 80  1     125.00000000      12.50000000      25.00000000     180.00000000     138.06701271
  1 13 11  1 56 1  1     125.00000000      12.50000000      25.00000000       0.00000000     138.06701271
  1 13 20  1 56 80  1     125.00000000      12.50000000      25.00000000     180.00000000     138.06701271
  1 13 11  1 57 1  1     125.00000000      12.50000000      25.00000000       0.00000000     142.52192814
  1 13 20  1 57 80  1     125.00000000      12.50000000      25.00000000     180.00000000     142.52192814
  1 13 11  1 58 1  1     125.00000000      12.50000000      25.00000000       0.00000000     151.03807467
  1 13 20  1 58 80  1     125.00000000      12.50000000      25.00000000     180.00000000     151.03807467
  1 13 11  1 59 1  1     125.00000000      12.50000000      25.00000000       0.00000000     162.98006013
  1 13 20  1 59 80  1     125.00000000      12.50000000      25.00000000     180.00000000     162.98006013
  1 13 11  1 60 1  1     125.00000000      12.50000000      25.00000000       0.00000000     177.65838004
  1 13 20  1 60 80  1     125.00000000      12.50000000      25.00000000     180.00000000     177.65838004
  1 14 11  1 61 1  1     125.00000000      12.50000000      25.00000000       0.00000000     177.65838004
  1 14 20  1 61 80  1     125.00000000      12.50000000      25.00000000     180.00000000     177.65838004
  1 14 11  1 62 1  1     125.00000000      12.50000000      25.00000000       0.00000000     162.98006013
  1 14 20  1 62 80  1     125.00000000      12.50000000      25.00000000     180.00000000     162.98006013
  1 14 11  1 63 1  1     125.00000000      12.50000000      25.00000000       0.00000000     151.03807467
  1 14 20  1 63 80  1     125.00000000      12.50000000      25.00000000     180.00000000     151.03807467
  1 14 11  1 64 1  1     125.00000000      12.50000000      25.00000000       0.00000000     142.52192814
  1 14 20  1 64 80  1     125.00000000      12.50000000      25.00000000     180.00000000     142.52192814
  1 14 11  1 65 1  1     125.00000000      12.50000000      25.00000000       0.00000000     138.06701271
  1 14 20  1 65 80  1     125.00000000      12.50000000      25.00000000     180.00000000     138.06701271
  1 14 11  1 66 1  1     125.00000000      12.50000000      25.00000000       0.00000000     138.06701271
  1 14 20  1 66 80  1     125.00000000      12.50000000      25.00000000     180.00000000     138.06701271
  1 14 11  1 67 1  1     125.00000000      12.50000000      25.00000000       0.00000000     142.52192814
  1 14 20  1 67 80  1     125.00000000      12.50000000      25.00000000     180.00000000     142.52192814
  1 14 11  1 68 1  1     125.00000000      12.50000000      25.00000000       0.00000000     151.03807467
  1 14 20  1 68 80  1     125.00000000      12.50000000      25.00000000     180.00000000     151.03807467
  1 14 11  1 69 1  1     125.00000000      12.50000000      25.00000000       0.00000000     162.98006013
  1 14 20  1 69 80  1     125.00000000      12.50000000      25.00000000     180.00000000     162.98006013
  1 14 11  1 70 1  1     125.00000000      12.50000000      25.00000000       0.00000000     177.65838004
  1 14 20  1 70 80  1     125.00000000      12.50000000      25.00000000     180.00000000     177.65838004
  1 15 11  1 71 1  1     125.00000000      12.50000000      25.00000000       0.00000000     177.65838004
  1 15 20  1 71 80  1     125.00000000      12.50000000      25.00000000     180.00000000     177.65838004
  1 15 11  1 72 1  1     125.00000000      12.50000000      25.00000000       0.00000000     162.98006013
  1 15 20  1 72 80  1     125.00000000      12.50000000      25.00000000     180.00000000     162.98006013
  1 15 11  1 73 1  1     125.00000000      12.50000000      25.00000000       0.00000000     151.03807467
  1 15 20  1 73 80  1     125.00000000      12.50000000      25.00000000     180.00000000     151.03807467
  1 15 11  1 74 1  1     125.00000000      12.50000000      25.00000000       0.00000000     142.52192814
  1 15 20  1 74 80  1     125.00000000      12.50000000      25.00000000     180.00000000     142.52192814
  1 15 11  1 75 1  1     125.00000000      12.50000000      25.00000000       0.00000000     138.06701271
  1 15 20  1 75 80  1     125.00000000      12.50000000      25.00000000     180.00000000     138.06701271
  1 15 11  1 76 1  1     125.00000000      12.50000000      25.00000000       0.00000000     138.06701271
  1 15 20  1 76 80  1     125.00000000      12.50000000      25.00000000     180.00000000     138.06701271
  1 15 11  1 77 1  1     125.00000000      12.50000000      25.00000000       0.00000000     142.52192814
  1 15 20  1 77 80  1     125.00000000      12.50000000      25.00000000     180.00000000     142.52192814
  1 15 11  1 78 1  1     125.00000000      12.50000000      25.00000000       0.00000000     151.03807467
  1 15 20  1 78 80  1     125.00000000      12.50000000      25.00000000     180.00000000     151.03807467
  1 15 11  1 79 1  1     125.00000000      12.50000000      25.00000000       0.00000000     162.98006013
  1 15 20  1 79 80  1     125.00000000      12.50000000      25.00000000     180.00000000     162.98006013
  1 15 11  1 80 1  1     125.00000000      12.50000000      25.00000000       0.00000000     177.65838004
  1 15 20  1 80 80  1     125.00000000      12.50000000      25.00000000     180.00000000     177.65838004
  1 16 11  1 81 1  1     125.00000000      12.50000000      25.00000000       0.00000000     177.65838004
  1 16 20  1 81 80  1     125.00000000      12.50000000      25.00000000     180.00000000     177.65838004
  1 16 11  1 82 1  1     125.00000000      12.50000000      25.00000000       0.00000000     162.98006013
  1 16 20  1 82 80  1     125.00000000      12.50000000      25.00000000     180.00000000     162.98006013
  1 16 11  1 83 1  1     125.00000000      12.50000000      25.00000000       0.00000000     151.03807467
  1 16 20  1 83 80  1     125.00000000      12.50000000      25.00000000     180.00000000     151.03807467
  1 16 11  1 84 1  1     125.00000000      12.50000000      25.00000000       0.00000000     142.52192814
  1 16 20  1 84 80  1     125.00000000      12.50000000      25.00000000     180.00000000     142.52192814
  1 16 11  1 85 1  1     125.00000000      12.50000000      25.00000000       0.00000000     138.06701271
  1 16 20  1 85 80  1     125.00000000      12.50000000      25.00000000     180.00000000     138.06701271
  1 16 11  1 86 1  1     125.00000000      12.50000000      25.00000000       0.00000000     138.06701271
  1 16 20  1 86 80  1     125.00000000      12.50000000      25.00000000     180.00000000     138.06701271
  1 16 11  1 87 1  1     125.00000000      12.50000000      25.00000000       0.00000000     142.52192814
  1 16 20  1 87 80  1     125.00000000      12.50000000      25.00000000     180.00000000     142.52192814
  1 16 11  1 88 1  1     125.00000000      12.50000000      25.00000000       0.00000000     151.03807467
  1 16 20  1 88 80  1     125.00000000      12.50000000      25.00000000     180.00000000     151.03807467
  1 16 11  1 89 1  1     125.00000000      12.50000000      25.00000000       0.00000000     162.98006013
  1 16 20  1 89 80  1     125.00000000      12.50000000      25.00000000     180.00000000     162.98006013
  1 16 11  1 90 1  1     125.00000000      12.50000000      25.00000000       0.00000000     177.65838004
  1 16 20  1 90 80  1     125.00000000      12.50000000      25.00000000     180.00000000     177.65838004
  1 17 11  1 91 1  1     125.00000000      12.50000000      25.00000000       0.00000000     177.65838004
  1 17 20  1 91 80  1     125.00000000      12.50000000      25.00000000     180.00000000     177.65838004
  1 17 11  1 92 1  1     125.00000000      12.50000000      25.00000000       0.00000000     162.98006013
  1 17 20  1 92 80  1     125.00000000      12.50000000      25.00000000     180.00000000     162.98006013
  1 17 11  1 93 1  1     125.00000000      12.50000000      25.00000000       0.00000000     151.03807467
  1 17 20  1 93 80  1     125.00000000      12.50000000      25.00000000     180.00000000     151.03807467
  1 17 11  1 94 1  1     125.00000000      12.50000000      25.00000000       0.00000000     142.52192814
  1 17 20  1 94 80  1     125.00000000      12.50000000      25.00000000     180.00000000     142.52192814
  1 17 11  1 95 1  1     125.00000000      12.50000000      25.00000000       0.00000000     138.06701271
  1 17 20  1 95 80  1     125.00000000      12.50000000      25.00000000     180.00000000     138.06701271
  1 17 11  1 96 1  1     125.00000000      12.50000000      25.00000000       0.00000000     138.06701271
  1 17 20  1 96 80  1     125.00000000      12.50000000      25.00000000     180.00000000     138.06701271
  1 17 11  1 97 1  1     125.00000000      12.50000000      25.00000000       0.00000000     142.52192814
  1 17 20  1 97 80  1     125.00000000      12.50000000      25.00000000     180.00000000     142.52192814
  1 17 11  1 98 1  1     125.00000000      12.50000000      25.00000000       0.00000000     151.03807467
  1 17 20  1 98 80  1     125.00000000      12.50000000      25.00000000     180.00000000     151.03807467
  1 17 11  1 99 1  1     125.00000000      12.50000000      25.00000000       0.00000000     162.98006013
  1 17 20  1 99 80  1     125.00000000      12.50000000      25.00000000     180.00000000     162.98006013
  1 17 11  1 100 1  1     125.00000000      12.50000000      25.00000000       0.00000000     177.65838004