# freyberg_lgr_parent model version 0.post69.dev0+g5e43358
# File generated by Flopy version 3.10.0.dev1 on 11/21/2025 at 17:18:29.
# via modflow-setup version 0.6.0 at 2025-11-21 17:18:29
BEGIN options
  LENGTH_UNITS  meters
  XORIGIN  5.64939137E+05
  YORIGIN  6.28088757E+06
  ANGROT       0.00000000
END options

BEGIN dimensions
  NLAY  3
  NROW  40
  NCOL  20
END dimensions

BEGIN griddata
  delr
    INTERNAL  FACTOR  1.0
       250.00000000     250.00000000     250.00000000     250.00000000     250.00000000     250.00000000     250.00000000     250.00000000     250.00000000     250.00000000     250.00000000     250.00000000     250.00000000     250.00000000     250.00000000     250.00000000     250.00000000     250.00000000     250.00000000     250.00000000
  delc
    INTERNAL  FACTOR  1.0
       250.00000000     250.00000000     250.00000000     250.00000000     250.00000000     250.00000000     250.00000000     250.00000000     250.00000000     250.00000000     250.00000000     250.00000000     250.00000000     250.00000000     250.00000000     250.00000000     250.00000000     250.00000000     250.00000000     250.00000000     250.00000000     250.00000000     250.00000000     250.00000000     250.00000000     250.00000000     250.00000000     250.00000000     250.00000000     250.00000000     250.00000000     250.00000000     250.00000000     250.00000000     250.00000000     250.00000000     250.00000000     250.00000000     250.00000000     250.00000000
  top
    INTERNAL  FACTOR  1.0
        41.40000000      41.33000000      41.18000000      40.95000000      40.71000000      40.43000000      40.09000000      39.80000000      39.44000000      39.09000000      38.74000000      38.40000000      38.05000000      37.67000000      37.28000000      36.81000000      36.96000000      37.04000000      37.09000000      37.11000000
        41.42000000      41.34000000      41.19000000      40.96000000      40.72000000      40.44000000      40.10000000      39.78000000      39.44000000      39.06000000      38.72000000      38.38000000      38.03000000      37.65000000      37.27000000      36.81000000      36.96000000      37.03000000      37.08000000      37.10000000
        41.44000000      41.37000000      41.21000000      40.97000000      40.73000000      40.44000000      40.08000000      39.77000000      39.40000000      39.03000000      38.67000000      38.34000000      37.99000000      37.63000000      37.26000000      36.79000000      36.94000000      37.01000000      37.06000000      37.09000000
        41.48000000      41.41000000      41.25000000      41.00000000      40.75000000      40.45000000      40.07000000      39.73000000      39.37000000      38.95000000      38.60000000      38.28000000      37.94000000      37.59000000      37.22000000      36.78000000      36.92000000      36.99000000      37.03000000      37.06000000
        41.54000000      41.46000000      41.29000000      41.06000000      40.78000000      40.44000000      40.06000000      39.71000000      39.28000000      38.87000000      38.52000000      38.20000000      37.87000000      37.54000000      37.18000000      36.75000000      36.88000000      36.95000000      36.99000000      37.02000000
        41.61000000      41.53000000      41.36000000      41.12000000      40.82000000      40.46000000      40.06000000      39.62000000      39.21000000      38.78000000      38.41000000      38.11000000      37.79000000      37.47000000      37.12000000      36.72000000      36.84000000      36.90000000      36.95000000      36.97000000
        41.68000000      41.61000000      41.46000000      41.20000000      40.88000000      40.45000000      40.03000000      39.51000000      39.07000000      38.63000000      38.29000000      38.00000000      37.70000000      37.39000000      37.06000000      36.67000000      36.78000000      36.84000000      36.88000000      36.91000000
        41.81000000      41.73000000      41.60000000      41.36000000      40.94000000      40.46000000      39.96000000      39.34000000      38.85000000      38.44000000      38.14000000       4.44999981       3.97000003       3.68000007       3.53999996       3.52999997       3.69000006       3.86999989       4.01999998      36.85000000
        41.92000000      41.87000000      41.80000000      41.72000000   -1049.99000000   -1049.99000000   -1049.99000000      38.92000000      38.51000000      38.23000000      37.98000000       4.26000023       3.73000002       3.38000011       3.16000009       3.00000000       3.25999999       3.49000001       3.68000007      36.79000000
        42.04000000      42.00000000      41.96000000      41.93000000   -1049.99000000   -1049.99000000   -1049.99000000   -1049.99000000      38.17000000      38.01000000      37.80000000       3.96000004       3.40000010       3.06999993       2.89000010       2.84999990       3.00000000       3.21000004       3.41000009      36.74000000
        42.11000000      42.09000000      42.07000000      42.06000000   -1049.99000000   -1049.99000000   -1049.99000000   -1049.99000000      37.92000000      37.81000000      37.64000000       3.59999990       3.00000000       2.75999999       2.67000008       2.69000006       2.82999992       3.01999998       3.21000004      36.73000000
        42.14000000      42.13000000      42.12000000      42.11000000   -1049.99000000   -1049.99000000   -1049.99000000   -1049.99000000      37.74000000      37.65000000      37.51000000       3.21000004       2.72000003       2.49000001       2.46000004       2.53999996       2.70000005       2.89000010       3.07999992      36.72000000
        42.13000000      42.13000000      42.12000000      42.11000000   -1049.99000000   -1049.99000000   -1049.99000000   -1049.99000000      37.61000000      37.54000000      37.41000000       2.75000000       2.34999990       2.22000003       2.26999998       2.41000009       2.59999990       2.79999995       2.99000001      36.73000000
        42.09000000      42.08000000      42.07000000      42.06000000   -1049.99000000   -1049.99000000   -1049.99000000   -1049.99000000      37.52000000      37.46000000      37.35000000       2.18000007       1.91999996       1.95000005       2.09999990       2.30999994       2.54999995       2.76999998       2.95000005      36.73000000
        41.99000000      41.99000000      41.97000000      41.97000000   -1049.99000000   -1049.99000000   -1049.99000000   -1049.99000000      37.46000000      37.40000000      37.30000000       1.50000000       1.60000002       1.75999999       1.99000001       2.25999999       2.53999996       2.78999996       2.95000005      36.73000000
        41.86000000      41.85000000      41.84000000      41.84000000   -1049.99000000   -1049.99000000   -1049.99000000   -1049.99000000      37.41000000      37.35000000      37.26000000       1.79999995       1.61000001       1.71000004       1.92999995       2.24000001       2.57999992       2.86999989       2.98000002      36.73000000
        41.68000000      41.66000000      41.66000000      41.67000000   -1049.99000000   -1049.99000000   -1049.99000000   -1049.99000000      37.37000000      37.32000000      37.23000000       1.98000002       1.72000003       1.73000002       1.89999998       2.20000005       2.56999993       3.00000000       2.96000004      36.72000000
        41.47000000      41.46000000      41.45000000      41.45000000   -1049.99000000   -1049.99000000   -1049.99000000   -1049.99000000      37.35000000      37.29000000      37.20000000       2.05999994       1.77999997       1.72000003       1.84000003       2.08999991       2.40000010       2.67000008       2.76999998      36.70000000
        41.23000000      41.22000000      41.20000000      41.20000000   -1049.99000000   -1049.99000000   -1049.99000000   -1049.99000000      37.33000000      37.28000000      37.18000000       2.05999994       1.75000000       1.63999999       1.73000002       1.94000006       2.18000007       2.39000010       2.52999997      36.69000000
        40.95000000      40.93000000      40.91000000      40.90000000   -1049.99000000   -1049.99000000   -1049.99000000   -1049.99000000      37.34000000      37.27000000      37.17000000       1.99000001       1.66999996       1.50000000       1.60000002       1.77999997       1.98000002       2.16000009       2.29999995      36.67000000
        40.64000000      40.62000000      40.60000000      40.56000000   -1049.99000000   -1049.99000000   -1049.99000000   -1049.99000000      37.37000000      37.28000000      37.16000000       1.87000000       1.58000004       1.46000004       1.50999999       1.64999998       1.80999994       1.96000004       2.09999990      36.65000000
        40.33000000      40.28000000      40.21000000      40.15000000   -1049.99000000   -1049.99000000      37.75000000      37.64000000      37.45000000      37.31000000      37.16000000       1.72000003       1.47000003       1.39999998       1.44000006       1.53999996       1.67999995       1.80999994       1.92999995      36.64000000
        39.98000000      39.93000000      39.83000000      39.67000000      39.33000000   -1049.99000000      37.81000000      37.67000000      37.48000000      37.31000000      37.14000000      37.00000000      36.83000000      36.66000000      36.49000000      36.31000000      36.45000000      36.54000000      36.60000000      36.63000000
        39.68000000      39.61000000      39.49000000      39.29000000      38.95000000      38.42000000      37.98000000      37.70000000      37.49000000      37.29000000      37.11000000      36.96000000      36.82000000      36.66000000      36.51000000      36.31000000      36.45000000      36.53000000      36.58000000      36.61000000
        39.38000000      39.30000000      39.17000000      38.99000000      38.66000000      38.27000000      37.96000000      37.68000000      37.45000000      37.22000000      37.03000000      36.90000000      36.78000000      36.64000000      36.50000000      36.30000000      36.44000000      36.52000000      36.57000000      36.60000000
        39.11000000      39.03000000      38.91000000      38.68000000      38.42000000      38.13000000      37.86000000      37.59000000      37.35000000      37.11000000      36.88000000      36.80000000      36.72000000      36.61000000      36.47000000      36.29000000      36.42000000      36.50000000      36.55000000      36.58000000
        38.84000000      38.78000000      38.65000000      38.46000000      38.21000000      37.96000000      37.71000000      37.47000000      37.24000000      36.98000000      36.58000000      36.68000000      36.65000000      36.56000000      36.44000000      36.27000000      36.40000000      36.48000000      36.53000000      36.55000000
        38.62000000      38.55000000      38.42000000      38.24000000      38.00000000      37.77000000      37.52000000      37.32000000      37.14000000      36.94000000      36.74000000      36.68000000      36.61000000      36.52000000      36.41000000      36.24000000      36.37000000      36.45000000      36.50000000      36.53000000
        38.41000000      38.33000000      38.20000000      38.02000000      37.79000000      37.54000000      37.26000000      37.14000000      37.02000000      36.88000000      36.75000000      36.65000000      36.57000000      36.48000000      36.37000000      36.21000000      36.34000000      36.42000000      36.47000000      36.49000000
        38.22000000      38.14000000      38.00000000      37.82000000      37.59000000      37.30000000      36.85000000      36.95000000      36.89000000      36.79000000      36.69000000      36.59000000      36.51000000      36.42000000      36.32000000      36.18000000      36.30000000      36.38000000      36.43000000      36.46000000
        38.07000000      37.98000000      37.84000000      37.67000000      37.44000000      37.21000000      36.97000000      36.87000000      36.78000000      36.68000000      36.59000000      36.50000000      36.41000000      36.34000000      36.26000000      36.14000000      36.26000000      36.34000000      36.39000000      36.42000000
        37.98000000      37.84000000      37.69000000      37.48000000      37.29000000      37.10000000      36.90000000      36.76000000      36.66000000      36.55000000      36.45000000      36.36000000      36.29000000      36.23000000      36.18000000      36.09000000      36.21000000      36.29000000      36.34000000      36.37000000
     -1049.99000000      37.70000000      37.53000000      37.31000000      37.13000000      36.94000000      36.76000000      36.62000000      36.49000000      36.38000000      36.28000000      36.19000000      36.11000000      36.09000000      36.07000000      36.03000000      36.15000000      36.23000000      36.29000000      36.32000000
     -1049.99000000   -1049.99000000      37.34000000      37.12000000      36.91000000      36.73000000      36.56000000      36.42000000      36.30000000      36.18000000      36.07000000      35.96000000      35.86000000      35.90000000      35.95000000      35.97000000      36.09000000      36.17000000      36.24000000      36.28000000
     -1049.99000000   -1049.99000000   -1049.99000000      36.91000000      36.65000000      36.47000000      36.32000000      36.19000000      36.06000000      35.95000000      35.84000000      35.70000000      35.44000000      35.69000000      35.82000000      35.89000000      36.01000000      36.11000000      36.18000000      36.24000000
     -1049.99000000   -1049.99000000   -1049.99000000   -1049.99000000      36.30000000      36.16000000      36.01000000      35.88000000      35.77000000      35.68000000      35.60000000      35.52000000      35.47000000      35.57000000      35.69000000      35.82000000      35.93000000      36.03000000      36.09000000   -1049.99000000
     -1049.99000000   -1049.99000000   -1049.99000000   -1049.99000000      36.08000000      35.80000000      35.65000000      35.52000000      35.44000000      35.38000000      35.33000000      35.30000000      35.31000000      35.40000000      35.54000000      35.73000000      35.84000000      35.95000000      36.03000000   -1049.99000000
     -1049.99000000   -1049.99000000   -1049.99000000   -1049.99000000   -1049.99000000      35.26000000      35.18000000      35.12000000      35.08000000      35.03000000      35.01000000      35.00000000      35.03000000      35.13000000      35.32000000      35.62000000      35.74000000      35.86000000   -1049.99000000   -1049.99000000
     -1049.99000000   -1049.99000000   -1049.99000000   -1049.99000000   -1049.99000000      34.73000000      34.71000000      34.68000000      34.66000000      34.64000000      34.62000000      34.63000000      34.66000000      34.75000000      34.96000000      35.51000000      35.62000000   -1049.99000000   -1049.99000000   -1049.99000000
     -1049.99000000   -1049.99000000   -1049.99000000   -1049.99000000   -1049.99000000      34.13000000      34.13000000      34.13000000      34.13000000      34.13000000      34.13000000      34.13000000      34.13000000      34.13000000      34.14000000      34.14000000   -1049.99000000   -1049.99000000   -1049.99000000   -1049.99000000
  botm  LAYERED
    OPEN/CLOSE  '.\.\freyberg_lgr_parent_botm_000.dat'  FACTOR  1.0
    OPEN/CLOSE  '.\.\freyberg_lgr_parent_botm_001.dat'  FACTOR  1.0
    OPEN/CLOSE  '.\.\freyberg_lgr_parent_botm_002.dat'  FACTOR  1.0
  idomain  LAYERED
    OPEN/CLOSE  '.\.\freyberg_lgr_parent_idomain_000.dat'  FACTOR  1
    OPEN/CLOSE  '.\.\freyberg_lgr_parent_idomain_001.dat'  FACTOR  1
    OPEN/CLOSE  '.\.\freyberg_lgr_parent_idomain_002.dat'  FACTOR  1
END griddata

