# freyberg_lgr_parent model version 0.post69.dev0+g5e43358
# File generated by Flopy version 3.10.0.dev1 on 11/21/2025 at 17:18:29.
# via modflow-setup version 0.6.0 at 2025-11-21 17:18:29
BEGIN options
END options

BEGIN griddata
  strt  LAYERED
    OPEN/CLOSE  '.\.\freyberg_lgr_parent_strt_000.dat'  FACTOR  1.0
    OPEN/CLOSE  '.\.\freyberg_lgr_parent_strt_001.dat'  FACTOR  1.0
    OPEN/CLOSE  '.\.\freyberg_lgr_parent_strt_002.dat'  FACTOR  1.0
END griddata

