# File generated by Flopy version 3.8.2 on 11/13/2025 at 14:58:13.
BEGIN options
  SAVE_SPECIFIC_DISCHARGE
  SAVE_SATURATION
END options

BEGIN griddata
  icelltype  LAYERED
    CONSTANT  1
    CONSTANT  0
    CONSTANT  0
    CONSTANT  0
    CONSTANT  0
    CONSTANT  0
    CONSTANT  0
    CONSTANT  0
  k
    CONSTANT     250.00000000
  k33
    CONSTANT     125.00000000
END griddata

