# File generated by Flopy version 3.8.2 on 11/13/2025 at 16:06:21.
BEGIN options
END options

BEGIN griddata
  strt
    CONSTANT      50.00000000
END griddata

