# File generated by Flopy version 3.8.2 on 11/13/2025 at 14:58:12.
BEGIN options
  TIME_UNITS  days
END options

BEGIN dimensions
  NPER  1
END dimensions

BEGIN perioddata
    9131.00000000  1       1.00000000
END perioddata

