# File generated by Flopy version 3.8.2 on 11/14/2025 at 15:50:25.
BEGIN options
END options

BEGIN period  1
  PRINT  budget  all
END period  1

