# File generated by Flopy version 3.8.2 on 11/14/2025 at 15:50:25.
BEGIN options
END options

BEGIN packages
  DIS6  e12A.dis  dis
  NPF6  e12A.npf  npf
  STO6  e12A.sto  sto
  IC6  e12A.ic  ic
  OC6  e12A.oc  oc
  SFR6  e12A.sfr  sfr-1
END packages

