# File generated by Flopy version 3.8.2 on 11/14/2025 at 15:50:25.
BEGIN options
  PRINT_INPUT
END options

BEGIN continuous  FILEOUT  e12A.sfr.obs.csv
  inflow-ext  ext-inflow  1
  inflow  inflow  25
  outflow  outflow  25
  stage  stage  25
  depth  depth  24
END continuous  FILEOUT  e12A.sfr.obs.csv

