# File generated by Flopy version 3.8.2 on 11/14/2025 at 15:50:25.
BEGIN options
END options

BEGIN timing
  TDIS6  e12A.tdis
END timing

BEGIN models
  gwf6  e12A.nam  e12A
END models

BEGIN exchanges
END exchanges

BEGIN solutiongroup  1
  ims6  e12A.ims  e12A
END solutiongroup  1

