# File generated by Flopy version 3.9.1 on 07/16/2025 at 14:52:12.
BEGIN options
  NEWTON  UNDER_RELAXATION
END options

BEGIN packages
  DIS6  Freyberg.dis  dis
  NPF6  Freyberg.npf  npf
  IC6  Freyberg.ic  ic
  RIV6  Freyberg.riv  riv-1
  WEL6  Freyberg.wel  wel-1
  RCH6  Freyberg.rcha  rcha_0
  CHD6  Freyberg.chd  chd_0
  WEL6  Freyberg.cf.wel  cf-1
  OC6  Freyberg.oc  oc
END packages

