# File generated by Flopy version 3.9.1 on 07/16/2025 at 14:59:07.
BEGIN options
END options

BEGIN griddata
  strt
    CONSTANT      45.00000000
END griddata

