# File generated by Flopy version 3.9.1 on 07/17/2025 at 09:26:38.
BEGIN options
  HEAD  FILEOUT  model.hds
END options

BEGIN period  1
  SAVE  head  all
END period  1

