# File generated by Flopy version 3.8.2 on 09/08/2025 at 10:45:10.
BEGIN options
  PRINT_OPTION  summary
  COMPLEXITY  complex
END options

