# File generated by Flopy version 3.8.2 on 09/08/2025 at 10:45:10.
BEGIN Options
  BUDGET  FILEOUT  freyberg6_freyberg.cbc
  HEAD  FILEOUT  freyberg6_freyberg.hds
  HEAD  PRINT_FORMAT  COLUMNS  10  WIDTH  11  DIGITS  4  general
END Options

BEGIN PERIOD  1
  SAVE  budget  last
  SAVE  head  last
  PRINT  budget  last
END PERIOD  1

