# File generated by Flopy version 3.8.2 on 09/08/2025 at 10:45:10.
BEGIN Options
  PRINT_INPUT
  PRINT_FLOWS
  SAVE_FLOWS
END Options

BEGIN Dimensions
  MAXBOUND  7
END Dimensions

BEGIN PERIOD  1
  1 10 17 -1.50000000E+02
  1 12 14 -1.50000000E+02
  1 21 15 -1.50000000E+02
  1 27 11 -1.50000000E+02
  1 30 7 -1.50000000E+02
  1 35 13 -1.50000000E+02
  1 25 5 0.00000000E+00
END PERIOD  1

BEGIN PERIOD  2
  1 10 17 -3.00000000E+02
  1 12 14 -3.00000000E+02
  1 21 15 -3.00000000E+02
  1 27 11 -3.00000000E+02
  1 30 7 -3.00000000E+02
  1 35 13 -3.00000000E+02
  1 25 5 0.00000000E+00
END PERIOD  2

BEGIN PERIOD  3
  1 10 17 -3.00000000E+02
  1 12 14 -3.00000000E+02
  1 21 15 -3.00000000E+02
  1 27 11 -3.00000000E+02
  1 30 7 -3.00000000E+02
  1 35 13 -3.00000000E+02
  1 25 5 0.00000000E+00
END PERIOD  3

BEGIN PERIOD  4
  1 10 17 -3.00000000E+02
  1 12 14 -3.00000000E+02
  1 21 15 -3.00000000E+02
  1 27 11 -3.00000000E+02
  1 30 7 -3.00000000E+02
  1 35 13 -3.00000000E+02
  1 25 5 0.00000000E+00
END PERIOD  4

BEGIN PERIOD  5
  1 10 17 -3.00000000E+02
  1 12 14 -3.00000000E+02
  1 21 15 -3.00000000E+02
  1 27 11 -3.00000000E+02
  1 30 7 -3.00000000E+02
  1 35 13 -3.00000000E+02
  1 25 5 0.00000000E+00
END PERIOD  5

BEGIN PERIOD  6
  1 10 17 -3.00000000E+02
  1 12 14 -3.00000000E+02
  1 21 15 -3.00000000E+02
  1 27 11 -3.00000000E+02
  1 30 7 -3.00000000E+02
  1 35 13 -3.00000000E+02
  1 25 5 0.00000000E+00
END PERIOD  6

BEGIN PERIOD  7
  1 10 17 -3.00000000E+02
  1 12 14 -3.00000000E+02
  1 21 15 -3.00000000E+02
  1 27 11 -3.00000000E+02
  1 30 7 -3.00000000E+02
  1 35 13 -3.00000000E+02
  1 25 5 0.00000000E+00
END PERIOD  7

BEGIN PERIOD  8
  1 10 17 -3.00000000E+02
  1 12 14 -3.00000000E+02
  1 21 15 -3.00000000E+02
  1 27 11 -3.00000000E+02
  1 30 7 -3.00000000E+02
  1 35 13 -3.00000000E+02
  1 25 5 0.00000000E+00
END PERIOD  8

BEGIN PERIOD  9
  1 10 17 -3.00000000E+02
  1 12 14 -3.00000000E+02
  1 21 15 -3.00000000E+02
  1 27 11 -3.00000000E+02
  1 30 7 -3.00000000E+02
  1 35 13 -3.00000000E+02
  1 25 5 0.00000000E+00
END PERIOD  9

BEGIN PERIOD  10
  1 10 17 -3.00000000E+02
  1 12 14 -3.00000000E+02
  1 21 15 -3.00000000E+02
  1 27 11 -3.00000000E+02
  1 30 7 -3.00000000E+02
  1 35 13 -3.00000000E+02
  1 25 5 0.00000000E+00
END PERIOD  10

BEGIN PERIOD  11
  1 10 17 -3.00000000E+02
  1 12 14 -3.00000000E+02
  1 21 15 -3.00000000E+02
  1 27 11 -3.00000000E+02
  1 30 7 -3.00000000E+02
  1 35 13 -3.00000000E+02
  1 25 5 0.00000000E+00
END PERIOD  11

BEGIN PERIOD  12
  1 10 17 -3.00000000E+02
  1 12 14 -3.00000000E+02
  1 21 15 -3.00000000E+02
  1 27 11 -3.00000000E+02
  1 30 7 -3.00000000E+02
  1 35 13 -3.00000000E+02
  1 25 5 -5.50000000E+02
END PERIOD  12

BEGIN PERIOD  13
  1 10 17 -3.00000000E+02
  1 12 14 -3.00000000E+02
  1 21 15 -3.00000000E+02
  1 27 11 -3.00000000E+02
  1 30 7 -3.00000000E+02
  1 35 13 -3.00000000E+02
  1 25 5 -5.50000000E+02
END PERIOD  13

BEGIN PERIOD  14
  1 10 17 -3.00000000E+02
  1 12 14 -3.00000000E+02
  1 21 15 -3.00000000E+02
  1 27 11 -3.00000000E+02
  1 30 7 -3.00000000E+02
  1 35 13 -3.00000000E+02
  1 25 5 -5.50000000E+02
END PERIOD  14

BEGIN PERIOD  15
  1 10 17 -3.00000000E+02
  1 12 14 -3.00000000E+02
  1 21 15 -3.00000000E+02
  1 27 11 -3.00000000E+02
  1 30 7 -3.00000000E+02
  1 35 13 -3.00000000E+02
  1 25 5 -5.50000000E+02
END PERIOD  15

BEGIN PERIOD  16
  1 10 17 -3.00000000E+02
  1 12 14 -3.00000000E+02
  1 21 15 -3.00000000E+02
  1 27 11 -3.00000000E+02
  1 30 7 -3.00000000E+02
  1 35 13 -3.00000000E+02
  1 25 5 -5.50000000E+02
END PERIOD  16

BEGIN PERIOD  17
  1 10 17 -3.00000000E+02
  1 12 14 -3.00000000E+02
  1 21 15 -3.00000000E+02
  1 27 11 -3.00000000E+02
  1 30 7 -3.00000000E+02
  1 35 13 -3.00000000E+02
  1 25 5 -5.50000000E+02
END PERIOD  17

BEGIN PERIOD  18
  1 10 17 -3.00000000E+02
  1 12 14 -3.00000000E+02
  1 21 15 -3.00000000E+02
  1 27 11 -3.00000000E+02
  1 30 7 -3.00000000E+02
  1 35 13 -3.00000000E+02
  1 25 5 -5.50000000E+02
END PERIOD  18

BEGIN PERIOD  19
  1 10 17 -3.00000000E+02
  1 12 14 -3.00000000E+02
  1 21 15 -3.00000000E+02
  1 27 11 -3.00000000E+02
  1 30 7 -3.00000000E+02
  1 35 13 -3.00000000E+02
  1 25 5 -5.50000000E+02
END PERIOD  19

BEGIN PERIOD  20
  1 10 17 -3.00000000E+02
  1 12 14 -3.00000000E+02
  1 21 15 -3.00000000E+02
  1 27 11 -3.00000000E+02
  1 30 7 -3.00000000E+02
  1 35 13 -3.00000000E+02
  1 25 5 -5.50000000E+02
END PERIOD  20

BEGIN PERIOD  21
  1 10 17 -3.00000000E+02
  1 12 14 -3.00000000E+02
  1 21 15 -3.00000000E+02
  1 27 11 -3.00000000E+02
  1 30 7 -3.00000000E+02
  1 35 13 -3.00000000E+02
  1 25 5 -5.50000000E+02
END PERIOD  21

BEGIN PERIOD  22
  1 10 17 -3.00000000E+02
  1 12 14 -3.00000000E+02
  1 21 15 -3.00000000E+02
  1 27 11 -3.00000000E+02
  1 30 7 -3.00000000E+02
  1 35 13 -3.00000000E+02
  1 25 5 -5.50000000E+02
END PERIOD  22

BEGIN PERIOD  23
  1 10 17 -3.00000000E+02
  1 12 14 -3.00000000E+02
  1 21 15 -3.00000000E+02
  1 27 11 -3.00000000E+02
  1 30 7 -3.00000000E+02
  1 35 13 -3.00000000E+02
  1 25 5 -5.50000000E+02
END PERIOD  23

BEGIN PERIOD  24
  1 10 17 -3.00000000E+02
  1 12 14 -3.00000000E+02
  1 21 15 -3.00000000E+02
  1 27 11 -3.00000000E+02
  1 30 7 -3.00000000E+02
  1 35 13 -3.00000000E+02
  1 25 5 -5.50000000E+02
END PERIOD  24

BEGIN PERIOD  25
  1 10 17 -3.00000000E+02
  1 12 14 -3.00000000E+02
  1 21 15 -3.00000000E+02
  1 27 11 -3.00000000E+02
  1 30 7 -3.00000000E+02
  1 35 13 -3.00000000E+02
  1 25 5 -5.50000000E+02
END PERIOD  25

