# File generated by Flopy version 3.8.2 on 09/08/2025 at 10:45:11.
BEGIN options
END options

BEGIN continuous  FILEOUT  sfr.csv
  headwater  sfr  headwater
  tailwater  sfr  tailwater
  gage-1  inflow  40.0
END continuous  FILEOUT  sfr.csv

