# File generated by Flopy version 3.8.2 on 09/08/2025 at 07:03:32.
BEGIN options
  NEWTON  UNDER_RELAXATION
END options

BEGIN packages
  oc6  Freyberg.oc  oc
  chd6  Freyberg.chd  chd_0
  rch6  Freyberg.rcha  rcha_0
  riv6  Freyberg.riv  riv-1
  ic6  Freyberg.ic  ic
  npf6  Freyberg.npf  npf
  dis6  Freyberg.dis  dis
  WEL6  freyberg.wel  wel-1
END packages

