# File generated by Flopy version 3.8.2 on 09/08/2025 at 07:03:32.
BEGIN options
END options

BEGIN griddata
  strt
    CONSTANT      45.00000000
END griddata

