# File generated by Flopy version 3.8.2 on 09/08/2025 at 07:03:32.
BEGIN options
END options

BEGIN dimensions
  MAXBOUND  10
END dimensions

BEGIN period  1
  1 38 9 -4.45448028E-03
  1 32 14 -1.06189281E-03
  1 35 5 -7.89711283E-03
  1 2 3 -1.04939945E-02
  1 4 13 -1.49094966E-02
  1 17 13 -1.51764428E-02
  1 6 12 -8.73112683E-03
  1 17 10 -2.42632718E-03
  1 34 9 -8.72347730E-03
  1 23 7 -3.01680080E-03
END period  1

