# plsnt_lgr_inset model version 0.post3.dev0+ge07a693
# Pleasant Lake test case version 0.1.post3.dev0+ge07a693
# File generated by Flopy version 3.10.0.dev1 on 11/19/2025 at 16:35:59.
# via modflow-setup version 0.6.0 at 2025-11-19 16:36:00
BEGIN options
  TIME_UNITS  days
  START_DATE_TIME  2012-01-01
END options

BEGIN dimensions
  NPER  13
END dimensions

BEGIN perioddata
  # perlen nstp tsmult
  1.00000000  1       1.00000000  # period 1: 2012-01-01 to 2012-01-01
  31.00000000  1       1.50000000  # period 2: 2012-01-01 to 2012-02-01
  29.00000000  1       1.50000000  # period 3: 2012-02-01 to 2012-03-01
  31.00000000  1       1.50000000  # period 4: 2012-03-01 to 2012-04-01
  30.00000000  1       1.50000000  # period 5: 2012-04-01 to 2012-05-01
  31.00000000  1       1.50000000  # period 6: 2012-05-01 to 2012-06-01
  30.00000000  1       1.50000000  # period 7: 2012-06-01 to 2012-07-01
  31.00000000  1       1.50000000  # period 8: 2012-07-01 to 2012-08-01
  31.00000000  1       1.50000000  # period 9: 2012-08-01 to 2012-09-01
  30.00000000  1       1.50000000  # period 10: 2012-09-01 to 2012-10-01
  31.00000000  1       1.50000000  # period 11: 2012-10-01 to 2012-11-01
  30.00000000  1       1.50000000  # period 12: 2012-11-01 to 2012-12-01
  31.00000000  1       1.50000000  # period 13: 2012-12-01 to 2013-01-01
END perioddata

