# Pleasant Lake test case version 0.1.post3.dev0+ge07a693
# File generated by Flopy version 3.10.0.dev1 on 11/19/2025 at 16:36:00.
# via modflow-setup version 0.6.0 at 2025-11-19 16:36:00
BEGIN options
END options

BEGIN continuous  FILEOUT  plsnt_lgr_parent.wel.obs.output.csv
  pleasant_3-13-28  wel  pleasant_3-13-28
  pleasant_3-24-27  wel  pleasant_3-24-27
END continuous  FILEOUT  plsnt_lgr_parent.wel.obs.output.csv

