# Pleasant Lake test case version 0.1.post3.dev0+ge07a693
# File generated by Flopy version 3.10.0.dev1 on 11/19/2025 at 16:36:00.
# via modflow-setup version 0.6.0 at 2025-11-19 16:36:00
BEGIN options
  LENGTH_UNITS  meters
  XORIGIN  5.53400000E+05
  YORIGIN  3.87800000E+05
  ANGROT       0.00000000
END options

BEGIN dimensions
  NLAY  5
  NROW  25
  NCOL  25
END dimensions

BEGIN griddata
  delr
    INTERNAL  FACTOR  1.0
       200.00000000     200.00000000     200.00000000     200.00000000     200.00000000     200.00000000     200.00000000     200.00000000     200.00000000     200.00000000     200.00000000     200.00000000     200.00000000     200.00000000     200.00000000     200.00000000     200.00000000     200.00000000     200.00000000     200.00000000     200.00000000     200.00000000     200.00000000     200.00000000     200.00000000
  delc
    INTERNAL  FACTOR  1.0
       200.00000000     200.00000000     200.00000000     200.00000000     200.00000000     200.00000000     200.00000000     200.00000000     200.00000000     200.00000000     200.00000000     200.00000000     200.00000000     200.00000000     200.00000000     200.00000000     200.00000000     200.00000000     200.00000000     200.00000000     200.00000000     200.00000000     200.00000000     200.00000000     200.00000000
  top
    INTERNAL  FACTOR  1.0
       344.05000000     357.78000000     356.47000000     355.85000000     348.45000000     346.50000000     342.10000000     334.13000000     331.90000000     342.33000000     334.99000000     339.50000000     326.04000000     319.91000000     333.05000000     325.20000000     319.56000000     316.98000000     312.46000000     311.19000000     311.12000000     311.13000000     310.00000000     307.50000000     305.79000000
       348.99000000     359.80000000     360.44000000     359.08000000     352.91000000     347.12000000     344.45000000     341.86000000     337.87000000     331.90000000     338.52000000     328.23000000     314.05000000     317.94000000     329.23000000     318.29000000     309.09000000     311.86000000     311.95000000     311.59000000     307.77000000     309.04000000     308.55000000     307.93000000     308.55000000
       354.40000000     362.19000000     362.73000000     363.03000000     356.96000000     354.77000000     348.19000000     338.21000000     331.94000000     334.06000000     328.05000000     320.36000000     312.30000000     318.90000000     312.13000000     312.86000000     319.61000000     311.66000000     311.77000000     305.50000000     309.36000000     305.11000000     303.93000000     305.84000000     305.33000000
       358.87000000     361.86000000     364.71000000     369.50000000     362.97000000     346.77000000     338.73000000     339.06000000     338.00000000     333.79000000     336.73000000     324.34000000     319.03000000     308.86000000     313.45000000     313.48000000     307.64000000     308.28000000     306.88000000     304.86000000     307.93000000     307.30000000     305.45000000     299.44000000     302.54000000
       361.70000000     362.68000000     359.48000000     354.87000000     339.57000000     338.96000000     333.74000000     338.64000000     338.98000000     339.93000000     338.03000000     325.02000000     317.96000000     317.01000000     311.68000000     325.59000000     314.06000000     306.50000000     299.06000000     306.94000000     310.19000000     310.19000000     303.85000000     304.20000000     301.90000000
       359.58000000     363.21000000     358.69000000     343.53000000     199.89999390     199.57000732     199.24000549     198.91000366     198.58999634     198.30999756     197.97999573     197.69000244     197.41999817     197.16000366     196.91000366     196.67999268     196.47999573     196.30999756     196.11999512     195.99000549     195.86999512     309.19000000     309.41000000     308.22000000     307.70000000
       353.65000000     351.51000000     342.90000000     339.05000000     199.39999390     199.08000183     198.77000427     198.47000122     198.16999817     197.89999390     197.58999634     197.32000732     197.07000732     196.82000732     196.60000610     196.38999939     196.19999695     196.03999329     195.88000488     195.75999451     195.66000366     310.40000000     310.16000000     308.54000000     306.34000000
       345.23000000     344.56000000     337.88000000     335.42000000     198.89999390     198.60000610     198.30000305     198.00999451     197.72999573     197.47999573     197.19000244     196.94000244     196.69999695     196.47999573     196.27000427     196.08000183     195.89999390     195.77000427     195.61999512     195.52000427     195.44000244     311.00000000     310.03000000     307.66000000     307.30000000
       345.39000000     342.26000000     337.55000000     320.99000000     198.38000488     198.10000610     197.82000732     197.55000305     197.27999878     197.05000305     196.77999878     196.55000305     196.33000183     196.11999512     195.91999817     195.75000000     195.58999634     195.47000122     195.33999634     195.25999451     195.19000244     310.02000000     308.02000000     305.27000000     305.30000000
       345.29000000     344.12000000     340.63000000     333.02000000     197.86000061     197.58999634     197.33000183     197.08000183     196.83000183     196.61000061     196.36000061     196.13999939     195.92999268     195.74000549     195.57000732     195.41000366     195.27000427     195.16000366     195.05000305     194.97999573     194.92999268     304.66000000     306.89000000     307.49000000     302.20000000
       351.71000000     345.24000000     339.65000000     334.99000000     197.33999634     197.08000183     196.83000183     196.58999634     196.36000061     196.16000366     195.91999817     195.72000122     195.52999878     195.35000610     195.19000244     195.05000305     194.91999817     194.83000183     194.72999573     194.66999817     194.63999939     295.35000000     299.93000000     296.54000000     294.24000000
       351.98000000     340.63000000     344.84000000     335.79000000     196.80000305     196.55999756     196.33000183     196.10000610     195.88000488     195.69999695     195.47999573     195.28999329     195.11000061     194.94999695     194.80000305     194.66999817     194.55999756     194.47999573     194.39999390     194.35000610     194.33000183     295.93000000     293.49000000     293.87000000     292.49000000
       344.61000000     341.80000000     343.51000000     339.57000000     196.25999451     196.03999329     195.82000732     195.60000610     195.39999390     195.22000122     195.02000427     194.83999634     194.67999268     194.52999878     194.39999390     194.27999878     194.17999268     194.11000061     194.03999329     194.00999451     194.00000000     307.32000000     306.08000000     305.44000000     296.30000000
       341.97000000     349.13000000     342.75000000     345.66000000     195.77000427     195.55999756     195.35000610     195.13999939     194.94999695     194.77999878     194.58999634     194.42999268     194.27999878     194.13999939     194.02000427     193.91000366     193.82000732     193.75999451     193.71000671     193.67999268     193.67999268     307.04000000     303.16000000     304.93000000     304.11000000
       340.56000000     346.58000000     346.92000000     348.53000000     195.16999817     194.96000671     194.77000427     194.58000183     194.38999939     194.24000549     194.05999756     193.91000366     193.77000427     193.63999939     193.52999878     193.44000244     193.36000061     193.30999756     193.27000427     193.25000000     193.27000427     302.32000000     304.32000000     301.08000000     304.61000000
       345.13000000     342.48000000     342.33000000     349.85000000     194.61000061     194.41999817     194.22999573     194.05000305     193.88000488     193.72999573     193.55999756     193.41999817     193.28999329     193.17999268     193.08000183     192.99000549     192.92999268     192.88000488     192.85000610     192.83999634     192.86000061     296.18000000     295.53000000     298.03000000     302.25000000
       341.12000000     334.96000000     340.01000000     346.95000000     194.05000305     193.86000061     193.67999268     193.50999451     193.35000610     193.21000671     193.05999756     192.91999817     192.80999756     192.69999695     192.61000061     192.52999878     192.47000122     192.42999268     192.41000366     192.41000366     192.42999268     302.67000000     301.83000000     293.85000000     300.11000000
       340.13000000     335.78000000     343.73000000     338.49000000     193.47999573     193.30000305     193.13000488     192.97000122     192.82000732     192.69000244     192.53999329     192.41999817     192.30000305     192.19999695     192.11999512     192.05000305     192.00000000     191.96000671     191.94999695     191.94999695     191.97999573     303.19000000     305.29000000     300.49000000     293.83000000
       333.58000000     337.28000000     336.59000000     315.23000000     192.91000366     192.74000549     192.57000732     192.41999817     192.27000427     192.14999390     192.00999451     191.88999939     191.78999329     191.69999695     191.61999512     191.55000305     191.50999451     191.47999573     191.47000122     191.47999573     191.50999451     304.63000000     304.70000000     296.54000000     300.67000000
       332.17000000     340.57000000     336.05000000     322.24000000     192.33000183     192.16999817     192.00999451     191.86000061     191.72000122     191.61000061     191.47000122     191.36000061     191.25999451     191.17999268     191.10000610     191.03999329     191.00000000     190.97000122     190.97000122     190.97999573     191.00999451     307.16000000     306.03000000     304.50000000     304.76000000
       335.22000000     326.54000000     328.21000000     320.29000000     316.22000000     313.95000000     316.01000000     311.48000000     310.96000000     308.83000000     304.97000000     302.19000000     305.01000000     298.65000000     295.80000000     293.77000000     302.22000000     313.87000000     322.37000000     316.18000000     305.45000000     306.19000000     304.76000000     306.12000000     298.23000000
       342.64000000     331.73000000     324.70000000     321.23000000     319.23000000     319.22000000     316.99000000     314.85000000     310.21000000     307.22000000     306.57000000     308.35000000     300.56000000     304.35000000     292.85000000     298.55000000     296.61000000     317.17000000     314.81000000     330.47000000     311.19000000     305.01000000     302.46000000     304.44000000     302.96000000
       337.16000000     333.29000000     334.12000000     325.07000000     322.15000000     316.03000000     314.94000000     314.37000000     312.41000000     311.96000000     307.71000000     309.36000000     308.30000000     309.84000000     309.03000000     303.86000000     292.52000000     294.18000000     302.08000000     303.20000000     305.09000000     307.03000000     302.29000000     301.08000000     301.09000000
       349.60000000     346.14000000     336.32000000     327.26000000     319.33000000     315.33000000     311.70000000     310.82000000     311.07000000     298.18000000     309.19000000     308.61000000     306.79000000     301.94000000     307.86000000     306.54000000     298.44000000     294.12000000     292.44000000     295.01000000     297.37000000     298.44000000     300.26000000     303.05000000     293.67000000
       361.69000000     356.86000000     335.69000000     327.92000000     321.32000000     315.97000000     304.78000000     300.95000000     301.12000000     294.79000000     301.20000000     305.28000000     301.22000000     299.62000000     309.64000000     304.65000000     303.42000000     297.19000000     290.23000000     291.02000000     289.87000000     290.10000000     289.57000000     299.09000000     290.36000000
  botm  LAYERED
    OPEN/CLOSE  '.\external\plsnt_lgr_parent_botm_000.dat'  FACTOR  1.0
    OPEN/CLOSE  '.\external\plsnt_lgr_parent_botm_001.dat'  FACTOR  1.0
    OPEN/CLOSE  '.\external\plsnt_lgr_parent_botm_002.dat'  FACTOR  1.0
    OPEN/CLOSE  '.\external\plsnt_lgr_parent_botm_003.dat'  FACTOR  1.0
    OPEN/CLOSE  '.\external\plsnt_lgr_parent_botm_004.dat'  FACTOR  1.0
  idomain  LAYERED
    OPEN/CLOSE  '.\external\plsnt_lgr_parent_idomain_000.dat'  FACTOR  1
    OPEN/CLOSE  '.\external\plsnt_lgr_parent_idomain_001.dat'  FACTOR  1
    OPEN/CLOSE  '.\external\plsnt_lgr_parent_idomain_002.dat'  FACTOR  1
    OPEN/CLOSE  '.\external\plsnt_lgr_parent_idomain_003.dat'  FACTOR  1
    OPEN/CLOSE  '.\external\plsnt_lgr_parent_idomain_004.dat'  FACTOR  1
END griddata

