# Pleasant Lake test case version 0.1.post3.dev0+ge07a693
# File generated by Flopy version 3.10.0.dev1 on 11/19/2025 at 16:36:00.
# via modflow-setup version 0.6.0 at 2025-11-19 16:36:00
BEGIN options
END options

BEGIN continuous  FILEOUT  plsnt_lgr_parent.chd.obs.output.csv
  perimeter-head  chd  perimeter-head
  perimeter-heads  chd  perimeter-heads
END continuous  FILEOUT  plsnt_lgr_parent.chd.obs.output.csv

