# File generated by Flopy version 3.9.1 on 07/17/2025 at 13:48:10.
BEGIN options
END options

BEGIN dimensions
  NPER  1
END dimensions

BEGIN perioddata
       1.00000000  1       1.00000000
END perioddata

