# File generated by Flopy version 3.8.2 on 12/06/2025 at 06:31:15.
BEGIN options
END options

BEGIN griddata
  strt
    CONSTANT      45.00000000
END griddata

