# File generated by Flopy version 3.8.2 on 12/06/2025 at 06:31:15.
BEGIN options
  READASARRAYS
END options

BEGIN period  1
  recharge
    CONSTANT  1.60000000E-09
END period  1

