# File generated by Flopy version 3.8.2 on 12/06/2025 at 06:31:15.
BEGIN options
END options

BEGIN dimensions
  MAXBOUND  6
END dimensions

BEGIN period  1
  1 9 16 -8.20000000E-03
  1 11 13 -4.10000000E-03
  1 20 14 -3.90000000E-03
  1 26 10 -8.30000000E-04
  1 29 6 -7.20000000E-04
  1 34 12 -4.30000000E-03
END period  1

