# File generated by Flopy version 3.8.2 on 09/08/2025 at 07:03:24.
BEGIN options
  BUDGET  FILEOUT  Freyberg.bud
  HEAD  FILEOUT  Freyberg.hds
END options

BEGIN period  1
  SAVE  HEAD  ALL
  SAVE  BUDGET  ALL
END period  1

