# File generated by Flopy version 3.8.2 on 12/06/2025 at 06:31:15.
BEGIN options
  NEWTON  UNDER_RELAXATION
END options

BEGIN packages
  DIS6  Freyberg.dis  dis
  NPF6  Freyberg.npf  npf
  IC6  Freyberg.ic  ic
  RIV6  Freyberg.riv  riv-1
  RCH6  Freyberg.rcha  rcha_0
  CHD6  Freyberg.chd  chd_0
  WEL6  Freyberg.wel  wel-1
  OC6  Freyberg.oc  oc
END packages

