# File generated by Flopy version 3.8.2 on 12/06/2025 at 06:31:15.
BEGIN options
END options

BEGIN timing
  TDIS6  Freyberg.tdis
END timing

BEGIN models
  gwf6  Freyberg.nam  Freyberg
END models

BEGIN exchanges
END exchanges

BEGIN solutiongroup  1
  ims6  Freyberg.ims  Freyberg
END solutiongroup  1

