# File generated by Flopy version 3.8.2 on 11/12/2025 at 08:06:37.
BEGIN options
END options

BEGIN griddata
  strt
    CONSTANT      50.00000000
END griddata

