# File generated by Flopy version 3.8.2 on 11/06/2025 at 14:55:09.
BEGIN options
  BUDGET  FILEOUT  flow.bud
  HEAD  FILEOUT  flow.hds
END options

BEGIN period  1
  SAVE  HEAD  ALL
  SAVE  BUDGET  ALL
END period  1

