# File generated by Flopy version 3.8.2 on 11/12/2025 at 08:06:37.
BEGIN options
  DIGITS  7
  PRINT_INPUT
END options

BEGIN continuous  FILEOUT  flow.sfr.obs.csv
  reach1leakage  SFR  SEG1
  reach2leakage  SFR  SEG2
  reach3leakage  SFR  SEG3
  reach4leakage  SFR  SEG4
END continuous  FILEOUT  flow.sfr.obs.csv

