# File generated by Flopy version 3.8.2 on 11/12/2025 at 08:06:37.
BEGIN options
  READASARRAYS
END options

BEGIN period  1
  recharge
    CONSTANT       0.00479000
END period  1

