# File generated by Flopy version 3.8.2 on 11/06/2025 at 14:55:09.
BEGIN options
END options

BEGIN griddata
  strt
    CONSTANT      50.00000000
END griddata

