# File generated by Flopy version 3.8.2 on 11/12/2025 at 08:06:37.
BEGIN options
  PRINT_OPTION  summary
END options

BEGIN nonlinear
  OUTER_DVCLOSE       0.01000000
  OUTER_MAXIMUM  1000
END nonlinear

BEGIN linear
  INNER_MAXIMUM  50
  INNER_DVCLOSE       0.01000000
  RELAXATION_FACTOR       0.99000000
END linear

