# File generated by Flopy version 3.8.2 on 11/06/2025 at 14:55:09.
BEGIN options
  READASARRAYS
END options

BEGIN period  1
  recharge
    CONSTANT       0.00479000
END period  1

