# File generated by Flopy version 3.8.2 on 09/08/2025 at 10:50:07.
BEGIN Options
  PRINT_INPUT
  PRINT_FLOWS
  SAVE_FLOWS
END Options

BEGIN Dimensions
  MAXBOUND  30
END Dimensions

BEGIN PERIOD  1
  1 40 6 3.35000000E+01 7.00000000E+01
  1 40 7 3.35000000E+01 7.00000000E+01
  1 40 8 3.35000000E+01 7.00000000E+01
  1 40 9 3.35000000E+01 7.00000000E+01
  1 40 10 3.35000000E+01 7.00000000E+01
  1 40 11 3.35000000E+01 7.00000000E+01
  1 40 12 3.35000000E+01 7.00000000E+01
  1 40 13 3.35000000E+01 7.00000000E+01
  1 40 14 3.35000000E+01 7.00000000E+01
  1 40 15 3.35000000E+01 7.00000000E+01
END PERIOD  1

