pcf
* control data
             restart          estimation
         0       800         0         0        32
         0         4              single               point         1
   2.000000E+01  -3.000000E+00   3.000000E-01   1.000000E-02        -7
   1.000000E+01   1.000000E+01   1.000000E-03
   1.000000E-01
         0   1.000000E-02         3         3   1.000000E-02         3
         0         0         0
* singular value decomposition
         1
  10000000    1.000000E-06
1
* parameter groups
* parameter data
* observation groups
oname:hds_otype:lst_usecol:trgw-0-13-10 
oname:hds_otype:lst_usecol:trgw-0-15-16 
oname:hds_otype:lst_usecol:trgw-0-2-15 
oname:hds_otype:lst_usecol:trgw-0-2-9 
oname:hds_otype:lst_usecol:trgw-0-21-10 
oname:hds_otype:lst_usecol:trgw-0-22-15 
oname:hds_otype:lst_usecol:trgw-0-24-4 
oname:hds_otype:lst_usecol:trgw-0-26-6 
oname:hds_otype:lst_usecol:trgw-0-29-15 
oname:hds_otype:lst_usecol:trgw-0-3-8 
oname:hds_otype:lst_usecol:trgw-0-33-7 
oname:hds_otype:lst_usecol:trgw-0-34-10 
oname:hds_otype:lst_usecol:trgw-0-9-1 
oname:sfr_otype:lst_usecol:gage-1 
oname:sfr_otype:lst_usecol:headwater 
oname:sfr_otype:lst_usecol:tailwater 
oname:difh_otype:lst_usecol:trgw-0-13-10 
oname:difh_otype:lst_usecol:trgw-0-15-16 
oname:difh_otype:lst_usecol:trgw-0-2-15 
oname:difh_otype:lst_usecol:trgw-0-2-9 
oname:difh_otype:lst_usecol:trgw-0-21-10 
oname:difh_otype:lst_usecol:trgw-0-22-15 
oname:difh_otype:lst_usecol:trgw-0-24-4 
oname:difh_otype:lst_usecol:trgw-0-26-6 
oname:difh_otype:lst_usecol:trgw-0-29-15 
oname:difh_otype:lst_usecol:trgw-0-3-8 
oname:difh_otype:lst_usecol:trgw-0-33-7 
oname:difh_otype:lst_usecol:trgw-0-34-10 
oname:difh_otype:lst_usecol:trgw-0-9-1 
oname:difq_otype:lst_usecol:gage-1 
oname:difq_otype:lst_usecol:headwater 
oname:difq_otype:lst_usecol:tailwater 
* observation data
 oname:hds_otype:lst_usecol:trgw-0-13-10_time:3652.5  3.4797358230E+01      1.0000000000E+00       oname:hds_otype:lst_usecol:trgw-0-13-10 
 oname:hds_otype:lst_usecol:trgw-0-13-10_time:3683.5  3.4768493870E+01      1.0000000000E+00       oname:hds_otype:lst_usecol:trgw-0-13-10 
 oname:hds_otype:lst_usecol:trgw-0-13-10_time:3712.5  3.4821230450E+01      1.0000000000E+00       oname:hds_otype:lst_usecol:trgw-0-13-10 
 oname:hds_otype:lst_usecol:trgw-0-13-10_time:3743.5  3.4920982850E+01      1.0000000000E+00       oname:hds_otype:lst_usecol:trgw-0-13-10 
 oname:hds_otype:lst_usecol:trgw-0-13-10_time:3773.5  3.5008383000E+01      1.0000000000E+00       oname:hds_otype:lst_usecol:trgw-0-13-10 
 oname:hds_otype:lst_usecol:trgw-0-13-10_time:3804.5  3.5042354370E+01      1.0000000000E+00       oname:hds_otype:lst_usecol:trgw-0-13-10 
 oname:hds_otype:lst_usecol:trgw-0-13-10_time:3834.5  3.4994916570E+01      1.0000000000E+00       oname:hds_otype:lst_usecol:trgw-0-13-10 
 oname:hds_otype:lst_usecol:trgw-0-13-10_time:3865.5  3.4862262130E+01      1.0000000000E+00       oname:hds_otype:lst_usecol:trgw-0-13-10 
 oname:hds_otype:lst_usecol:trgw-0-13-10_time:3896.5  3.4672915690E+01      1.0000000000E+00       oname:hds_otype:lst_usecol:trgw-0-13-10 
 oname:hds_otype:lst_usecol:trgw-0-13-10_time:3926.5  3.4475155070E+01      1.0000000000E+00       oname:hds_otype:lst_usecol:trgw-0-13-10 
 oname:hds_otype:lst_usecol:trgw-0-13-10_time:3957.5  3.4305498560E+01      1.0000000000E+00       oname:hds_otype:lst_usecol:trgw-0-13-10 
 oname:hds_otype:lst_usecol:trgw-0-13-10_time:3987.5  3.4208903260E+01      1.0000000000E+00       oname:hds_otype:lst_usecol:trgw-0-13-10 
 oname:hds_otype:lst_usecol:trgw-0-13-10_time:4018.5  3.4202438580E+01      1.0000000000E+00       oname:hds_otype:lst_usecol:trgw-0-13-10 
 oname:hds_otype:lst_usecol:trgw-0-13-10_time:4049.5  3.4282508480E+01      1.0000000000E+00       oname:hds_otype:lst_usecol:trgw-0-13-10 
 oname:hds_otype:lst_usecol:trgw-0-13-10_time:4077.5  3.4413068180E+01      1.0000000000E+00       oname:hds_otype:lst_usecol:trgw-0-13-10 
 oname:hds_otype:lst_usecol:trgw-0-13-10_time:4108.5  3.4578075160E+01      1.0000000000E+00       oname:hds_otype:lst_usecol:trgw-0-13-10 
 oname:hds_otype:lst_usecol:trgw-0-13-10_time:4138.5  3.4710506230E+01      1.0000000000E+00       oname:hds_otype:lst_usecol:trgw-0-13-10 
 oname:hds_otype:lst_usecol:trgw-0-13-10_time:4169.5  3.4777151350E+01      1.0000000000E+00       oname:hds_otype:lst_usecol:trgw-0-13-10 
 oname:hds_otype:lst_usecol:trgw-0-13-10_time:4199.5  3.4752190940E+01      1.0000000000E+00       oname:hds_otype:lst_usecol:trgw-0-13-10 
 oname:hds_otype:lst_usecol:trgw-0-13-10_time:4230.5  3.4636457670E+01      1.0000000000E+00       oname:hds_otype:lst_usecol:trgw-0-13-10 
 oname:hds_otype:lst_usecol:trgw-0-13-10_time:4261.5  3.4459979320E+01      1.0000000000E+00       oname:hds_otype:lst_usecol:trgw-0-13-10 
 oname:hds_otype:lst_usecol:trgw-0-13-10_time:4291.5  3.4272364610E+01      1.0000000000E+00       oname:hds_otype:lst_usecol:trgw-0-13-10 
 oname:hds_otype:lst_usecol:trgw-0-13-10_time:4322.5  3.4111575440E+01      1.0000000000E+00       oname:hds_otype:lst_usecol:trgw-0-13-10 
 oname:hds_otype:lst_usecol:trgw-0-13-10_time:4352.5  3.4027084990E+01      1.0000000000E+00       oname:hds_otype:lst_usecol:trgw-0-13-10 
 oname:hds_otype:lst_usecol:trgw-0-13-10_time:4383.5  3.4074068100E+01      1.0000000000E+00       oname:hds_otype:lst_usecol:trgw-0-13-10 
 oname:hds_otype:lst_usecol:trgw-0-15-16_time:3652.5  3.4378744170E+01      1.0000000000E+00       oname:hds_otype:lst_usecol:trgw-0-15-16 
 oname:hds_otype:lst_usecol:trgw-0-15-16_time:3683.5  3.4359507880E+01      1.0000000000E+00       oname:hds_otype:lst_usecol:trgw-0-15-16 
 oname:hds_otype:lst_usecol:trgw-0-15-16_time:3712.5  3.4399717780E+01      1.0000000000E+00       oname:hds_otype:lst_usecol:trgw-0-15-16 
 oname:hds_otype:lst_usecol:trgw-0-15-16_time:3743.5  3.4469788250E+01      1.0000000000E+00       oname:hds_otype:lst_usecol:trgw-0-15-16 
 oname:hds_otype:lst_usecol:trgw-0-15-16_time:3773.5  3.4526044570E+01      1.0000000000E+00       oname:hds_otype:lst_usecol:trgw-0-15-16 
 oname:hds_otype:lst_usecol:trgw-0-15-16_time:3804.5  3.4540115570E+01      1.0000000000E+00       oname:hds_otype:lst_usecol:trgw-0-15-16 
 oname:hds_otype:lst_usecol:trgw-0-15-16_time:3834.5  3.4496313130E+01      1.0000000000E+00       oname:hds_otype:lst_usecol:trgw-0-15-16 
 oname:hds_otype:lst_usecol:trgw-0-15-16_time:3865.5  3.4393826190E+01      1.0000000000E+00       oname:hds_otype:lst_usecol:trgw-0-15-16 
 oname:hds_otype:lst_usecol:trgw-0-15-16_time:3896.5  3.4257763340E+01      1.0000000000E+00       oname:hds_otype:lst_usecol:trgw-0-15-16 
 oname:hds_otype:lst_usecol:trgw-0-15-16_time:3926.5  3.4123022980E+01      1.0000000000E+00       oname:hds_otype:lst_usecol:trgw-0-15-16 
 oname:hds_otype:lst_usecol:trgw-0-15-16_time:3957.5  3.4015440020E+01      1.0000000000E+00       oname:hds_otype:lst_usecol:trgw-0-15-16 
 oname:hds_otype:lst_usecol:trgw-0-15-16_time:3987.5  3.3964397460E+01      1.0000000000E+00       oname:hds_otype:lst_usecol:trgw-0-15-16 
 oname:hds_otype:lst_usecol:trgw-0-15-16_time:4018.5  3.3978579300E+01      1.0000000000E+00       oname:hds_otype:lst_usecol:trgw-0-15-16 
 oname:hds_otype:lst_usecol:trgw-0-15-16_time:4049.5  3.4049942780E+01      1.0000000000E+00       oname:hds_otype:lst_usecol:trgw-0-15-16 
 oname:hds_otype:lst_usecol:trgw-0-15-16_time:4077.5  3.4150371470E+01      1.0000000000E+00       oname:hds_otype:lst_usecol:trgw-0-15-16 
 oname:hds_otype:lst_usecol:trgw-0-15-16_time:4108.5  3.4267379990E+01      1.0000000000E+00       oname:hds_otype:lst_usecol:trgw-0-15-16 
 oname:hds_otype:lst_usecol:trgw-0-15-16_time:4138.5  3.4354176130E+01      1.0000000000E+00       oname:hds_otype:lst_usecol:trgw-0-15-16 
 oname:hds_otype:lst_usecol:trgw-0-15-16_time:4169.5  3.4389448300E+01      1.0000000000E+00       oname:hds_otype:lst_usecol:trgw-0-15-16 
 oname:hds_otype:lst_usecol:trgw-0-15-16_time:4199.5  3.4359653070E+01      1.0000000000E+00       oname:hds_otype:lst_usecol:trgw-0-15-16 
 oname:hds_otype:lst_usecol:trgw-0-15-16_time:4230.5  3.4267776750E+01      1.0000000000E+00       oname:hds_otype:lst_usecol:trgw-0-15-16 
 oname:hds_otype:lst_usecol:trgw-0-15-16_time:4261.5  3.4139681640E+01      1.0000000000E+00       oname:hds_otype:lst_usecol:trgw-0-15-16 
 oname:hds_otype:lst_usecol:trgw-0-15-16_time:4291.5  3.4011222770E+01      1.0000000000E+00       oname:hds_otype:lst_usecol:trgw-0-15-16 
 oname:hds_otype:lst_usecol:trgw-0-15-16_time:4322.5  3.3909072450E+01      1.0000000000E+00       oname:hds_otype:lst_usecol:trgw-0-15-16 
 oname:hds_otype:lst_usecol:trgw-0-15-16_time:4352.5  3.3864828190E+01      1.0000000000E+00       oname:hds_otype:lst_usecol:trgw-0-15-16 
 oname:hds_otype:lst_usecol:trgw-0-15-16_time:4383.5  3.3915567930E+01      1.0000000000E+00       oname:hds_otype:lst_usecol:trgw-0-15-16 
  oname:hds_otype:lst_usecol:trgw-0-2-15_time:3652.5  3.4626503820E+01      1.0000000000E+00        oname:hds_otype:lst_usecol:trgw-0-2-15 
  oname:hds_otype:lst_usecol:trgw-0-2-15_time:3683.5  3.4633560310E+01      1.0000000000E+00        oname:hds_otype:lst_usecol:trgw-0-2-15 
  oname:hds_otype:lst_usecol:trgw-0-2-15_time:3712.5  3.4684382230E+01      1.0000000000E+00        oname:hds_otype:lst_usecol:trgw-0-2-15 
  oname:hds_otype:lst_usecol:trgw-0-2-15_time:3743.5  3.4756157020E+01      1.0000000000E+00        oname:hds_otype:lst_usecol:trgw-0-2-15 
  oname:hds_otype:lst_usecol:trgw-0-2-15_time:3773.5  3.4813334010E+01      1.0000000000E+00        oname:hds_otype:lst_usecol:trgw-0-2-15 
  oname:hds_otype:lst_usecol:trgw-0-2-15_time:3804.5  3.4833239620E+01      1.0000000000E+00        oname:hds_otype:lst_usecol:trgw-0-2-15 
  oname:hds_otype:lst_usecol:trgw-0-2-15_time:3834.5  3.4801430880E+01      1.0000000000E+00        oname:hds_otype:lst_usecol:trgw-0-2-15 
  oname:hds_otype:lst_usecol:trgw-0-2-15_time:3865.5  3.4717696050E+01      1.0000000000E+00        oname:hds_otype:lst_usecol:trgw-0-2-15 
  oname:hds_otype:lst_usecol:trgw-0-2-15_time:3896.5  3.4602294160E+01      1.0000000000E+00        oname:hds_otype:lst_usecol:trgw-0-2-15 
  oname:hds_otype:lst_usecol:trgw-0-2-15_time:3926.5  3.4485344130E+01      1.0000000000E+00        oname:hds_otype:lst_usecol:trgw-0-2-15 
  oname:hds_otype:lst_usecol:trgw-0-2-15_time:3957.5  3.4389158200E+01      1.0000000000E+00        oname:hds_otype:lst_usecol:trgw-0-2-15 
  oname:hds_otype:lst_usecol:trgw-0-2-15_time:3987.5  3.4341747180E+01      1.0000000000E+00        oname:hds_otype:lst_usecol:trgw-0-2-15 
  oname:hds_otype:lst_usecol:trgw-0-2-15_time:4018.5  3.4351325510E+01      1.0000000000E+00        oname:hds_otype:lst_usecol:trgw-0-2-15 
  oname:hds_otype:lst_usecol:trgw-0-2-15_time:4049.5  3.4411280490E+01      1.0000000000E+00        oname:hds_otype:lst_usecol:trgw-0-2-15 
  oname:hds_otype:lst_usecol:trgw-0-2-15_time:4077.5  3.4497800890E+01      1.0000000000E+00        oname:hds_otype:lst_usecol:trgw-0-2-15 
  oname:hds_otype:lst_usecol:trgw-0-2-15_time:4108.5  3.4600811570E+01      1.0000000000E+00        oname:hds_otype:lst_usecol:trgw-0-2-15 
  oname:hds_otype:lst_usecol:trgw-0-2-15_time:4138.5  3.4679743570E+01      1.0000000000E+00        oname:hds_otype:lst_usecol:trgw-0-2-15 
  oname:hds_otype:lst_usecol:trgw-0-2-15_time:4169.5  3.4715754570E+01      1.0000000000E+00        oname:hds_otype:lst_usecol:trgw-0-2-15 
  oname:hds_otype:lst_usecol:trgw-0-2-15_time:4199.5  3.4695400400E+01      1.0000000000E+00        oname:hds_otype:lst_usecol:trgw-0-2-15 
  oname:hds_otype:lst_usecol:trgw-0-2-15_time:4230.5  3.4620764510E+01      1.0000000000E+00        oname:hds_otype:lst_usecol:trgw-0-2-15 
  oname:hds_otype:lst_usecol:trgw-0-2-15_time:4261.5  3.4512706860E+01      1.0000000000E+00        oname:hds_otype:lst_usecol:trgw-0-2-15 
  oname:hds_otype:lst_usecol:trgw-0-2-15_time:4291.5  3.4401877670E+01      1.0000000000E+00        oname:hds_otype:lst_usecol:trgw-0-2-15 
  oname:hds_otype:lst_usecol:trgw-0-2-15_time:4322.5  3.4311236700E+01      1.0000000000E+00        oname:hds_otype:lst_usecol:trgw-0-2-15 
  oname:hds_otype:lst_usecol:trgw-0-2-15_time:4352.5  3.4268675850E+01      1.0000000000E+00        oname:hds_otype:lst_usecol:trgw-0-2-15 
  oname:hds_otype:lst_usecol:trgw-0-2-15_time:4383.5  3.4307289910E+01      1.0000000000E+00        oname:hds_otype:lst_usecol:trgw-0-2-15 
   oname:hds_otype:lst_usecol:trgw-0-2-9_time:3652.5  3.5594706870E+01      1.0000000000E+00         oname:hds_otype:lst_usecol:trgw-0-2-9 
   oname:hds_otype:lst_usecol:trgw-0-2-9_time:3683.5  3.5608652650E+01      1.0000000000E+00         oname:hds_otype:lst_usecol:trgw-0-2-9 
   oname:hds_otype:lst_usecol:trgw-0-2-9_time:3712.5  3.5696182650E+01      1.0000000000E+00         oname:hds_otype:lst_usecol:trgw-0-2-9 
   oname:hds_otype:lst_usecol:trgw-0-2-9_time:3743.5  3.5829616980E+01      1.0000000000E+00         oname:hds_otype:lst_usecol:trgw-0-2-9 
   oname:hds_otype:lst_usecol:trgw-0-2-9_time:3773.5  3.5948796980E+01      1.0000000000E+00         oname:hds_otype:lst_usecol:trgw-0-2-9 
   oname:hds_otype:lst_usecol:trgw-0-2-9_time:3804.5  3.6012429340E+01      1.0000000000E+00         oname:hds_otype:lst_usecol:trgw-0-2-9 
   oname:hds_otype:lst_usecol:trgw-0-2-9_time:3834.5  3.5986041160E+01      1.0000000000E+00         oname:hds_otype:lst_usecol:trgw-0-2-9 
   oname:hds_otype:lst_usecol:trgw-0-2-9_time:3865.5  3.5861738060E+01      1.0000000000E+00         oname:hds_otype:lst_usecol:trgw-0-2-9 
   oname:hds_otype:lst_usecol:trgw-0-2-9_time:3896.5  3.5664809950E+01      1.0000000000E+00         oname:hds_otype:lst_usecol:trgw-0-2-9 
   oname:hds_otype:lst_usecol:trgw-0-2-9_time:3926.5  3.5445461380E+01      1.0000000000E+00         oname:hds_otype:lst_usecol:trgw-0-2-9 
   oname:hds_otype:lst_usecol:trgw-0-2-9_time:3957.5  3.5242763050E+01      1.0000000000E+00         oname:hds_otype:lst_usecol:trgw-0-2-9 
   oname:hds_otype:lst_usecol:trgw-0-2-9_time:3987.5  3.5114928290E+01      1.0000000000E+00         oname:hds_otype:lst_usecol:trgw-0-2-9 
   oname:hds_otype:lst_usecol:trgw-0-2-9_time:4018.5  3.5084027780E+01      1.0000000000E+00         oname:hds_otype:lst_usecol:trgw-0-2-9 
   oname:hds_otype:lst_usecol:trgw-0-2-9_time:4049.5  3.5151062950E+01      1.0000000000E+00         oname:hds_otype:lst_usecol:trgw-0-2-9 
   oname:hds_otype:lst_usecol:trgw-0-2-9_time:4077.5  3.5281275400E+01      1.0000000000E+00         oname:hds_otype:lst_usecol:trgw-0-2-9 
   oname:hds_otype:lst_usecol:trgw-0-2-9_time:4108.5  3.5459241620E+01      1.0000000000E+00         oname:hds_otype:lst_usecol:trgw-0-2-9 
   oname:hds_otype:lst_usecol:trgw-0-2-9_time:4138.5  3.5613124700E+01      1.0000000000E+00         oname:hds_otype:lst_usecol:trgw-0-2-9 
   oname:hds_otype:lst_usecol:trgw-0-2-9_time:4169.5  3.5704772630E+01      1.0000000000E+00         oname:hds_otype:lst_usecol:trgw-0-2-9 
   oname:hds_otype:lst_usecol:trgw-0-2-9_time:4199.5  3.5699611610E+01      1.0000000000E+00         oname:hds_otype:lst_usecol:trgw-0-2-9 
   oname:hds_otype:lst_usecol:trgw-0-2-9_time:4230.5  3.5592812270E+01      1.0000000000E+00         oname:hds_otype:lst_usecol:trgw-0-2-9 
   oname:hds_otype:lst_usecol:trgw-0-2-9_time:4261.5  3.5410428770E+01      1.0000000000E+00         oname:hds_otype:lst_usecol:trgw-0-2-9 
   oname:hds_otype:lst_usecol:trgw-0-2-9_time:4291.5  3.5203448330E+01      1.0000000000E+00         oname:hds_otype:lst_usecol:trgw-0-2-9 
   oname:hds_otype:lst_usecol:trgw-0-2-9_time:4322.5  3.5012285740E+01      1.0000000000E+00         oname:hds_otype:lst_usecol:trgw-0-2-9 
   oname:hds_otype:lst_usecol:trgw-0-2-9_time:4352.5  3.4895070360E+01      1.0000000000E+00         oname:hds_otype:lst_usecol:trgw-0-2-9 
   oname:hds_otype:lst_usecol:trgw-0-2-9_time:4383.5  3.4914950530E+01      1.0000000000E+00         oname:hds_otype:lst_usecol:trgw-0-2-9 
 oname:hds_otype:lst_usecol:trgw-0-21-10_time:3652.5  3.4713368180E+01      1.0000000000E+00       oname:hds_otype:lst_usecol:trgw-0-21-10 
 oname:hds_otype:lst_usecol:trgw-0-21-10_time:3683.5  3.4679022890E+01      1.0000000000E+00       oname:hds_otype:lst_usecol:trgw-0-21-10 
 oname:hds_otype:lst_usecol:trgw-0-21-10_time:3712.5  3.4726236310E+01      1.0000000000E+00       oname:hds_otype:lst_usecol:trgw-0-21-10 
 oname:hds_otype:lst_usecol:trgw-0-21-10_time:3743.5  3.4822797870E+01      1.0000000000E+00       oname:hds_otype:lst_usecol:trgw-0-21-10 
 oname:hds_otype:lst_usecol:trgw-0-21-10_time:3773.5  3.4909527080E+01      1.0000000000E+00       oname:hds_otype:lst_usecol:trgw-0-21-10 
 oname:hds_otype:lst_usecol:trgw-0-21-10_time:3804.5  3.4943884160E+01      1.0000000000E+00       oname:hds_otype:lst_usecol:trgw-0-21-10 
 oname:hds_otype:lst_usecol:trgw-0-21-10_time:3834.5  3.4896112350E+01      1.0000000000E+00       oname:hds_otype:lst_usecol:trgw-0-21-10 
 oname:hds_otype:lst_usecol:trgw-0-21-10_time:3865.5  3.4760461120E+01      1.0000000000E+00       oname:hds_otype:lst_usecol:trgw-0-21-10 
 oname:hds_otype:lst_usecol:trgw-0-21-10_time:3896.5  3.4564751810E+01      1.0000000000E+00       oname:hds_otype:lst_usecol:trgw-0-21-10 
 oname:hds_otype:lst_usecol:trgw-0-21-10_time:3926.5  3.4357864640E+01      1.0000000000E+00       oname:hds_otype:lst_usecol:trgw-0-21-10 
 oname:hds_otype:lst_usecol:trgw-0-21-10_time:3957.5  3.4176889880E+01      1.0000000000E+00       oname:hds_otype:lst_usecol:trgw-0-21-10 
 oname:hds_otype:lst_usecol:trgw-0-21-10_time:3987.5  3.4028370510E+01      1.0000000000E+00       oname:hds_otype:lst_usecol:trgw-0-21-10 
 oname:hds_otype:lst_usecol:trgw-0-21-10_time:4018.5  3.3969933990E+01      1.0000000000E+00       oname:hds_otype:lst_usecol:trgw-0-21-10 
 oname:hds_otype:lst_usecol:trgw-0-21-10_time:4049.5  3.4011485800E+01      1.0000000000E+00       oname:hds_otype:lst_usecol:trgw-0-21-10 
 oname:hds_otype:lst_usecol:trgw-0-21-10_time:4077.5  3.4118195230E+01      1.0000000000E+00       oname:hds_otype:lst_usecol:trgw-0-21-10 
 oname:hds_otype:lst_usecol:trgw-0-21-10_time:4108.5  3.4267409790E+01      1.0000000000E+00       oname:hds_otype:lst_usecol:trgw-0-21-10 
 oname:hds_otype:lst_usecol:trgw-0-21-10_time:4138.5  3.4391602280E+01      1.0000000000E+00       oname:hds_otype:lst_usecol:trgw-0-21-10 
 oname:hds_otype:lst_usecol:trgw-0-21-10_time:4169.5  3.4453823330E+01      1.0000000000E+00       oname:hds_otype:lst_usecol:trgw-0-21-10 
 oname:hds_otype:lst_usecol:trgw-0-21-10_time:4199.5  3.4425488870E+01      1.0000000000E+00       oname:hds_otype:lst_usecol:trgw-0-21-10 
 oname:hds_otype:lst_usecol:trgw-0-21-10_time:4230.5  3.4304792750E+01      1.0000000000E+00       oname:hds_otype:lst_usecol:trgw-0-21-10 
 oname:hds_otype:lst_usecol:trgw-0-21-10_time:4261.5  3.4120481920E+01      1.0000000000E+00       oname:hds_otype:lst_usecol:trgw-0-21-10 
 oname:hds_otype:lst_usecol:trgw-0-21-10_time:4291.5  3.3922541200E+01      1.0000000000E+00       oname:hds_otype:lst_usecol:trgw-0-21-10 
 oname:hds_otype:lst_usecol:trgw-0-21-10_time:4322.5  3.3749295940E+01      1.0000000000E+00       oname:hds_otype:lst_usecol:trgw-0-21-10 
 oname:hds_otype:lst_usecol:trgw-0-21-10_time:4352.5  3.3652848620E+01      1.0000000000E+00       oname:hds_otype:lst_usecol:trgw-0-21-10 
 oname:hds_otype:lst_usecol:trgw-0-21-10_time:4383.5  3.3690121090E+01      1.0000000000E+00       oname:hds_otype:lst_usecol:trgw-0-21-10 
 oname:hds_otype:lst_usecol:trgw-0-22-15_time:3652.5  3.4239559320E+01      1.0000000000E+00       oname:hds_otype:lst_usecol:trgw-0-22-15 
 oname:hds_otype:lst_usecol:trgw-0-22-15_time:3683.5  3.4205825110E+01      1.0000000000E+00       oname:hds_otype:lst_usecol:trgw-0-22-15 
 oname:hds_otype:lst_usecol:trgw-0-22-15_time:3712.5  3.4240510920E+01      1.0000000000E+00       oname:hds_otype:lst_usecol:trgw-0-22-15 
 oname:hds_otype:lst_usecol:trgw-0-22-15_time:3743.5  3.4303633920E+01      1.0000000000E+00       oname:hds_otype:lst_usecol:trgw-0-22-15 
 oname:hds_otype:lst_usecol:trgw-0-22-15_time:3773.5  3.4354764400E+01      1.0000000000E+00       oname:hds_otype:lst_usecol:trgw-0-22-15 
 oname:hds_otype:lst_usecol:trgw-0-22-15_time:3804.5  3.4368288110E+01      1.0000000000E+00       oname:hds_otype:lst_usecol:trgw-0-22-15 
 oname:hds_otype:lst_usecol:trgw-0-22-15_time:3834.5  3.4330070430E+01      1.0000000000E+00       oname:hds_otype:lst_usecol:trgw-0-22-15 
 oname:hds_otype:lst_usecol:trgw-0-22-15_time:3865.5  3.4237273460E+01      1.0000000000E+00       oname:hds_otype:lst_usecol:trgw-0-22-15 
 oname:hds_otype:lst_usecol:trgw-0-22-15_time:3896.5  3.4113286390E+01      1.0000000000E+00       oname:hds_otype:lst_usecol:trgw-0-22-15 
 oname:hds_otype:lst_usecol:trgw-0-22-15_time:3926.5  3.3989117750E+01      1.0000000000E+00       oname:hds_otype:lst_usecol:trgw-0-22-15 
 oname:hds_otype:lst_usecol:trgw-0-22-15_time:3957.5  3.3888053500E+01      1.0000000000E+00       oname:hds_otype:lst_usecol:trgw-0-22-15 
 oname:hds_otype:lst_usecol:trgw-0-22-15_time:3987.5  3.3831120710E+01      1.0000000000E+00       oname:hds_otype:lst_usecol:trgw-0-22-15 
 oname:hds_otype:lst_usecol:trgw-0-22-15_time:4018.5  3.3830545480E+01      1.0000000000E+00       oname:hds_otype:lst_usecol:trgw-0-22-15 
 oname:hds_otype:lst_usecol:trgw-0-22-15_time:4049.5  3.3883325120E+01      1.0000000000E+00       oname:hds_otype:lst_usecol:trgw-0-22-15 
 oname:hds_otype:lst_usecol:trgw-0-22-15_time:4077.5  3.3966004150E+01      1.0000000000E+00       oname:hds_otype:lst_usecol:trgw-0-22-15 
 oname:hds_otype:lst_usecol:trgw-0-22-15_time:4108.5  3.4065968440E+01      1.0000000000E+00       oname:hds_otype:lst_usecol:trgw-0-22-15 
 oname:hds_otype:lst_usecol:trgw-0-22-15_time:4138.5  3.4141440310E+01      1.0000000000E+00       oname:hds_otype:lst_usecol:trgw-0-22-15 
 oname:hds_otype:lst_usecol:trgw-0-22-15_time:4169.5  3.4172174760E+01      1.0000000000E+00       oname:hds_otype:lst_usecol:trgw-0-22-15 
 oname:hds_otype:lst_usecol:trgw-0-22-15_time:4199.5  3.4145371340E+01      1.0000000000E+00       oname:hds_otype:lst_usecol:trgw-0-22-15 
 oname:hds_otype:lst_usecol:trgw-0-22-15_time:4230.5  3.4061698300E+01      1.0000000000E+00       oname:hds_otype:lst_usecol:trgw-0-22-15 
 oname:hds_otype:lst_usecol:trgw-0-22-15_time:4261.5  3.3944578040E+01      1.0000000000E+00       oname:hds_otype:lst_usecol:trgw-0-22-15 
 oname:hds_otype:lst_usecol:trgw-0-22-15_time:4291.5  3.3825795280E+01      1.0000000000E+00       oname:hds_otype:lst_usecol:trgw-0-22-15 
 oname:hds_otype:lst_usecol:trgw-0-22-15_time:4322.5  3.3729284150E+01      1.0000000000E+00       oname:hds_otype:lst_usecol:trgw-0-22-15 
 oname:hds_otype:lst_usecol:trgw-0-22-15_time:4352.5  3.3684557030E+01      1.0000000000E+00       oname:hds_otype:lst_usecol:trgw-0-22-15 
 oname:hds_otype:lst_usecol:trgw-0-22-15_time:4383.5  3.3724906990E+01      1.0000000000E+00       oname:hds_otype:lst_usecol:trgw-0-22-15 
  oname:hds_otype:lst_usecol:trgw-0-24-4_time:3652.5  3.5452833800E+01      1.0000000000E+00        oname:hds_otype:lst_usecol:trgw-0-24-4 
  oname:hds_otype:lst_usecol:trgw-0-24-4_time:3683.5  3.5436126720E+01      1.0000000000E+00        oname:hds_otype:lst_usecol:trgw-0-24-4 
  oname:hds_otype:lst_usecol:trgw-0-24-4_time:3712.5  3.5500678330E+01      1.0000000000E+00        oname:hds_otype:lst_usecol:trgw-0-24-4 
  oname:hds_otype:lst_usecol:trgw-0-24-4_time:3743.5  3.5624531420E+01      1.0000000000E+00        oname:hds_otype:lst_usecol:trgw-0-24-4 
  oname:hds_otype:lst_usecol:trgw-0-24-4_time:3773.5  3.5744618900E+01      1.0000000000E+00        oname:hds_otype:lst_usecol:trgw-0-24-4 
  oname:hds_otype:lst_usecol:trgw-0-24-4_time:3804.5  3.5811765170E+01      1.0000000000E+00        oname:hds_otype:lst_usecol:trgw-0-24-4 
  oname:hds_otype:lst_usecol:trgw-0-24-4_time:3834.5  3.5782972280E+01      1.0000000000E+00        oname:hds_otype:lst_usecol:trgw-0-24-4 
  oname:hds_otype:lst_usecol:trgw-0-24-4_time:3865.5  3.5643605820E+01      1.0000000000E+00        oname:hds_otype:lst_usecol:trgw-0-24-4 
  oname:hds_otype:lst_usecol:trgw-0-24-4_time:3896.5  3.5417115390E+01      1.0000000000E+00        oname:hds_otype:lst_usecol:trgw-0-24-4 
  oname:hds_otype:lst_usecol:trgw-0-24-4_time:3926.5  3.5157840000E+01      1.0000000000E+00        oname:hds_otype:lst_usecol:trgw-0-24-4 
  oname:hds_otype:lst_usecol:trgw-0-24-4_time:3957.5  3.4908181920E+01      1.0000000000E+00        oname:hds_otype:lst_usecol:trgw-0-24-4 
  oname:hds_otype:lst_usecol:trgw-0-24-4_time:3987.5  3.3806381330E+01      1.0000000000E+00        oname:hds_otype:lst_usecol:trgw-0-24-4 
  oname:hds_otype:lst_usecol:trgw-0-24-4_time:4018.5  3.3526387390E+01      1.0000000000E+00        oname:hds_otype:lst_usecol:trgw-0-24-4 
  oname:hds_otype:lst_usecol:trgw-0-24-4_time:4049.5  3.3454121660E+01      1.0000000000E+00        oname:hds_otype:lst_usecol:trgw-0-24-4 
  oname:hds_otype:lst_usecol:trgw-0-24-4_time:4077.5  3.3507655100E+01      1.0000000000E+00        oname:hds_otype:lst_usecol:trgw-0-24-4 
  oname:hds_otype:lst_usecol:trgw-0-24-4_time:4108.5  3.3642072760E+01      1.0000000000E+00        oname:hds_otype:lst_usecol:trgw-0-24-4 
  oname:hds_otype:lst_usecol:trgw-0-24-4_time:4138.5  3.3777924850E+01      1.0000000000E+00        oname:hds_otype:lst_usecol:trgw-0-24-4 
  oname:hds_otype:lst_usecol:trgw-0-24-4_time:4169.5  3.3860947110E+01      1.0000000000E+00        oname:hds_otype:lst_usecol:trgw-0-24-4 
  oname:hds_otype:lst_usecol:trgw-0-24-4_time:4199.5  3.3843810860E+01      1.0000000000E+00        oname:hds_otype:lst_usecol:trgw-0-24-4 
  oname:hds_otype:lst_usecol:trgw-0-24-4_time:4230.5  3.3711650600E+01      1.0000000000E+00        oname:hds_otype:lst_usecol:trgw-0-24-4 
  oname:hds_otype:lst_usecol:trgw-0-24-4_time:4261.5  3.3487632960E+01      1.0000000000E+00        oname:hds_otype:lst_usecol:trgw-0-24-4 
  oname:hds_otype:lst_usecol:trgw-0-24-4_time:4291.5  3.3227693690E+01      1.0000000000E+00        oname:hds_otype:lst_usecol:trgw-0-24-4 
  oname:hds_otype:lst_usecol:trgw-0-24-4_time:4322.5  3.2976452290E+01      1.0000000000E+00        oname:hds_otype:lst_usecol:trgw-0-24-4 
  oname:hds_otype:lst_usecol:trgw-0-24-4_time:4352.5  3.2806265160E+01      1.0000000000E+00        oname:hds_otype:lst_usecol:trgw-0-24-4 
  oname:hds_otype:lst_usecol:trgw-0-24-4_time:4383.5  3.2792129580E+01      1.0000000000E+00        oname:hds_otype:lst_usecol:trgw-0-24-4 
  oname:hds_otype:lst_usecol:trgw-0-26-6_time:3652.5  3.5066278260E+01      1.0000000000E+00        oname:hds_otype:lst_usecol:trgw-0-26-6 
  oname:hds_otype:lst_usecol:trgw-0-26-6_time:3683.5  3.5008395550E+01      1.0000000000E+00        oname:hds_otype:lst_usecol:trgw-0-26-6 
  oname:hds_otype:lst_usecol:trgw-0-26-6_time:3712.5  3.5055096090E+01      1.0000000000E+00        oname:hds_otype:lst_usecol:trgw-0-26-6 
  oname:hds_otype:lst_usecol:trgw-0-26-6_time:3743.5  3.5166285750E+01      1.0000000000E+00        oname:hds_otype:lst_usecol:trgw-0-26-6 
  oname:hds_otype:lst_usecol:trgw-0-26-6_time:3773.5  3.5274165130E+01      1.0000000000E+00        oname:hds_otype:lst_usecol:trgw-0-26-6 
  oname:hds_otype:lst_usecol:trgw-0-26-6_time:3804.5  3.5328822120E+01      1.0000000000E+00        oname:hds_otype:lst_usecol:trgw-0-26-6 
  oname:hds_otype:lst_usecol:trgw-0-26-6_time:3834.5  3.5290573130E+01      1.0000000000E+00        oname:hds_otype:lst_usecol:trgw-0-26-6 
  oname:hds_otype:lst_usecol:trgw-0-26-6_time:3865.5  3.5147570140E+01      1.0000000000E+00        oname:hds_otype:lst_usecol:trgw-0-26-6 
  oname:hds_otype:lst_usecol:trgw-0-26-6_time:3896.5  3.4925536670E+01      1.0000000000E+00        oname:hds_otype:lst_usecol:trgw-0-26-6 
  oname:hds_otype:lst_usecol:trgw-0-26-6_time:3926.5  3.4678331780E+01      1.0000000000E+00        oname:hds_otype:lst_usecol:trgw-0-26-6 
  oname:hds_otype:lst_usecol:trgw-0-26-6_time:3957.5  3.4447482740E+01      1.0000000000E+00        oname:hds_otype:lst_usecol:trgw-0-26-6 
  oname:hds_otype:lst_usecol:trgw-0-26-6_time:3987.5  3.4098181190E+01      1.0000000000E+00        oname:hds_otype:lst_usecol:trgw-0-26-6 
  oname:hds_otype:lst_usecol:trgw-0-26-6_time:4018.5  3.3917675580E+01      1.0000000000E+00        oname:hds_otype:lst_usecol:trgw-0-26-6 
  oname:hds_otype:lst_usecol:trgw-0-26-6_time:4049.5  3.3889537240E+01      1.0000000000E+00        oname:hds_otype:lst_usecol:trgw-0-26-6 
  oname:hds_otype:lst_usecol:trgw-0-26-6_time:4077.5  3.3964279390E+01      1.0000000000E+00        oname:hds_otype:lst_usecol:trgw-0-26-6 
  oname:hds_otype:lst_usecol:trgw-0-26-6_time:4108.5  3.4106192150E+01      1.0000000000E+00        oname:hds_otype:lst_usecol:trgw-0-26-6 
  oname:hds_otype:lst_usecol:trgw-0-26-6_time:4138.5  3.4239426970E+01      1.0000000000E+00        oname:hds_otype:lst_usecol:trgw-0-26-6 
  oname:hds_otype:lst_usecol:trgw-0-26-6_time:4169.5  3.4315509490E+01      1.0000000000E+00        oname:hds_otype:lst_usecol:trgw-0-26-6 
  oname:hds_otype:lst_usecol:trgw-0-26-6_time:4199.5  3.4293564700E+01      1.0000000000E+00        oname:hds_otype:lst_usecol:trgw-0-26-6 
  oname:hds_otype:lst_usecol:trgw-0-26-6_time:4230.5  3.4163748380E+01      1.0000000000E+00        oname:hds_otype:lst_usecol:trgw-0-26-6 
  oname:hds_otype:lst_usecol:trgw-0-26-6_time:4261.5  3.3951626940E+01      1.0000000000E+00        oname:hds_otype:lst_usecol:trgw-0-26-6 
  oname:hds_otype:lst_usecol:trgw-0-26-6_time:4291.5  3.3711786980E+01      1.0000000000E+00        oname:hds_otype:lst_usecol:trgw-0-26-6 
  oname:hds_otype:lst_usecol:trgw-0-26-6_time:4322.5  3.3487177390E+01      1.0000000000E+00        oname:hds_otype:lst_usecol:trgw-0-26-6 
  oname:hds_otype:lst_usecol:trgw-0-26-6_time:4352.5  3.3343362070E+01      1.0000000000E+00        oname:hds_otype:lst_usecol:trgw-0-26-6 
  oname:hds_otype:lst_usecol:trgw-0-26-6_time:4383.5  3.3349041410E+01      1.0000000000E+00        oname:hds_otype:lst_usecol:trgw-0-26-6 
 oname:hds_otype:lst_usecol:trgw-0-29-15_time:3652.5  3.4166172930E+01      1.0000000000E+00       oname:hds_otype:lst_usecol:trgw-0-29-15 